*SPEF "ieee 1481-1999"
*DESIGN "digital_wrapper"
*DATE "13:03:17 Monday June 29, 2026"
*VENDOR "The OpenROAD Project"
*PROGRAM "OpenROAD"
*VERSION "26Q1-1024-gdcf36133a"
*DESIGN_FLOW "NAME_SCOPE LOCAL" "PIN_CAP NONE"
*DIVIDER /
*DELIMITER :
*BUS_DELIMITER []
*T_UNIT 1 NS
*C_UNIT 1 PF
*R_UNIT 1 OHM
*L_UNIT 1 HENRY

*NAME_MAP
*3 net
*4 bn0
*5 bn1
*6 bn2
*7 bn3
*8 bn4
*9 bn5
*10 bn6
*11 bn7
*12 bn8
*13 bn9
*14 bp0
*15 bp1
*16 bp2
*17 bp3
*18 bp4
*19 bp5
*20 bp6
*21 bp7
*22 bp8
*23 bp9
*24 clk
*25 comp_in
*26 cs_n
*27 miso
*28 mosi
*29 rst_n
*30 sclk
*31 start
*32 _000_
*33 _001_
*34 _002_
*35 _003_
*36 _004_
*37 _005_
*38 _006_
*39 _007_
*40 _008_
*41 _009_
*42 _010_
*43 _011_
*44 _012_
*45 _013_
*46 _014_
*47 _015_
*48 _016_
*49 _017_
*50 _018_
*51 _019_
*52 _020_
*53 _021_
*54 _022_
*55 _023_
*56 _024_
*57 _025_
*58 _026_
*59 _027_
*60 _028_
*61 _029_
*62 _030_
*63 _031_
*64 _032_
*65 _033_
*66 _034_
*67 _035_
*68 _036_
*69 _037_
*70 _038_
*71 _039_
*72 _040_
*73 _041_
*74 _042_
*75 _043_
*76 _044_
*77 _045_
*78 _046_
*79 _047_
*80 _048_
*81 _049_
*82 _050_
*83 _051_
*84 _052_
*85 _053_
*86 _054_
*87 _055_
*88 _056_
*89 _057_
*90 _058_
*91 _059_
*92 _060_
*93 _061_
*94 _062_
*95 _063_
*96 _064_
*97 _065_
*98 _066_
*99 _067_
*100 _068_
*101 _069_
*102 _070_
*103 _071_
*104 _072_
*105 _073_
*106 _074_
*107 _075_
*108 _076_
*109 _077_
*110 _078_
*111 _079_
*112 _080_
*113 _081_
*114 _082_
*115 _083_
*116 _084_
*117 _085_
*118 _086_
*119 _087_
*120 _088_
*121 _089_
*122 _090_
*123 _091_
*124 _092_
*125 _093_
*126 _094_
*127 _095_
*128 _096_
*129 _097_
*130 _098_
*131 _099_
*132 _100_
*133 _101_
*134 _102_
*135 _103_
*136 _104_
*137 _105_
*138 _106_
*139 _107_
*140 _108_
*141 _109_
*142 _110_
*143 _111_
*144 _112_
*145 _113_
*146 _114_
*147 _115_
*148 _116_
*149 _117_
*150 _118_
*151 _119_
*152 _120_
*153 _121_
*154 _122_
*155 _123_
*156 _124_
*157 _125_
*158 _126_
*159 _127_
*160 _128_
*161 _129_
*162 _130_
*163 _131_
*164 _132_
*165 _133_
*166 _134_
*167 _135_
*168 _136_
*169 _137_
*170 _138_
*171 _139_
*172 _140_
*173 _141_
*174 _142_
*175 _143_
*176 _144_
*177 _145_
*178 _146_
*179 _147_
*180 _148_
*181 _149_
*182 _150_
*183 _151_
*184 _152_
*185 _153_
*186 _154_
*187 _155_
*188 _156_
*189 _157_
*190 _158_
*191 _159_
*192 _160_
*193 _161_
*194 _162_
*195 _163_
*196 _164_
*197 _165_
*198 _166_
*199 _167_
*200 _168_
*201 _169_
*202 _170_
*203 _171_
*204 _172_
*205 _173_
*206 _174_
*207 _175_
*208 _176_
*209 _177_
*210 _178_
*211 _179_
*212 _180_
*213 _181_
*214 _182_
*215 _183_
*216 _184_
*217 _185_
*218 _186_
*219 _187_
*220 _188_
*221 _189_
*222 _190_
*223 _191_
*224 _192_
*225 _193_
*226 _194_
*227 _195_
*228 _196_
*229 _197_
*230 _198_
*231 _199_
*232 _200_
*233 _201_
*234 _202_
*235 _203_
*236 _204_
*237 _205_
*238 _206_
*239 _207_
*240 _208_
*241 _209_
*242 _210_
*243 _211_
*244 _212_
*245 _213_
*246 _214_
*247 _215_
*248 _216_
*249 _217_
*250 _218_
*251 _219_
*252 _220_
*253 _221_
*254 _222_
*255 _223_
*256 _224_
*257 _225_
*258 _226_
*259 _227_
*260 _228_
*261 _229_
*262 _230_
*263 _231_
*264 _232_
*265 _233_
*266 _234_
*267 _235_
*268 _236_
*269 _237_
*270 _238_
*271 _239_
*272 _240_
*273 _241_
*274 _242_
*275 _243_
*276 _244_
*277 _245_
*278 _246_
*279 _247_
*280 _248_
*281 _249_
*282 _250_
*283 _251_
*284 _252_
*285 _253_
*286 _254_
*287 _255_
*288 _256_
*289 _257_
*290 _258_
*291 _259_
*292 _260_
*293 _261_
*294 _262_
*295 _263_
*296 _264_
*297 _265_
*298 _266_
*299 _267_
*300 _268_
*301 _269_
*302 _270_
*303 _271_
*304 _272_
*305 _273_
*306 _274_
*307 _275_
*308 _276_
*309 _277_
*310 _278_
*311 _279_
*312 _280_
*313 _281_
*314 _282_
*315 _283_
*316 _284_
*317 _285_
*318 _286_
*319 _287_
*320 _288_
*321 _289_
*322 _290_
*323 _291_
*324 _292_
*325 _293_
*326 _294_
*327 _295_
*328 _296_
*329 _297_
*330 _298_
*331 _299_
*332 _300_
*333 _301_
*334 _302_
*335 _303_
*336 _304_
*337 _305_
*338 _306_
*339 _307_
*340 _308_
*341 _309_
*342 _310_
*343 _311_
*344 _312_
*345 _313_
*346 _314_
*347 _315_
*348 _316_
*349 _317_
*350 _318_
*351 _319_
*352 _320_
*353 _321_
*354 _322_
*355 _323_
*356 _324_
*357 _325_
*358 _326_
*359 _327_
*360 _328_
*361 _329_
*362 _330_
*363 _331_
*364 _332_
*365 _333_
*366 cal_result\[0\]
*367 cal_result\[1\]
*368 cal_result\[2\]
*369 cal_result\[3\]
*370 cal_result\[4\]
*371 cal_result\[5\]
*372 cal_result\[6\]
*373 cal_result\[7\]
*374 cal_result\[8\]
*375 cal_result\[9\]
*376 cal_valid
*377 clknet_0_clk
*378 clknet_3_0__leaf_clk
*379 clknet_3_1__leaf_clk
*380 clknet_3_2__leaf_clk
*381 clknet_3_3__leaf_clk
*382 clknet_3_4__leaf_clk
*383 clknet_3_5__leaf_clk
*384 clknet_3_6__leaf_clk
*385 clknet_3_7__leaf_clk
*386 net1
*387 net10
*388 net11
*389 net12
*390 net13
*391 net14
*392 net15
*393 net16
*394 net17
*395 net18
*396 net19
*397 net2
*398 net20
*399 net21
*400 net22
*401 net23
*402 net24
*403 net25
*404 net26
*405 net27
*406 net28
*407 net29
*408 net3
*409 net30
*410 net31
*411 net32
*412 net33
*413 net34
*414 net35
*415 net36
*416 net37
*417 net38
*418 net39
*419 net4
*420 net40
*421 net41
*422 net42
*423 net43
*424 net44
*425 net45
*426 net46
*427 net47
*428 net48
*429 net49
*430 net5
*431 net50
*432 net51
*433 net52
*434 net53
*435 net54
*436 net55
*437 net56
*438 net57
*439 net58
*440 net59
*441 net6
*442 net60
*443 net61
*444 net62
*445 net7
*446 net8
*447 net9
*448 offset\[0\]
*449 offset\[1\]
*450 offset\[2\]
*451 offset\[3\]
*452 offset\[4\]
*453 offset\[5\]
*454 offset\[6\]
*455 offset\[7\]
*456 offset\[8\]
*457 offset\[9\]
*458 sar_result\[0\]
*459 sar_result\[1\]
*460 sar_result\[2\]
*461 sar_result\[3\]
*462 sar_result\[4\]
*463 sar_result\[5\]
*464 sar_result\[6\]
*465 sar_result\[7\]
*466 sar_result\[8\]
*467 sar_result\[9\]
*468 sar_valid
*469 u_sar\.bit_idx\[0\]
*470 u_sar\.bit_idx\[1\]
*471 u_sar\.bit_idx\[2\]
*472 u_sar\.bit_idx\[3\]
*473 u_sar\.count\[0\]
*474 u_sar\.count\[1\]
*475 u_sar\.count\[2\]
*476 u_sar\.count\[3\]
*477 u_sar\.count\[4\]
*478 u_sar\.count\[5\]
*479 u_sar\.count\[6\]
*480 u_sar\.count\[7\]
*481 u_sar\.state\[0\]
*482 u_sar\.state\[1\]
*483 u_sar\.state\[2\]
*484 u_sar\.state\[3\]
*485 u_sar\.state\[4\]
*486 u_sar\.state\[5\]
*487 u_spi\.bit_cnt\[0\]
*488 u_spi\.bit_cnt\[1\]
*489 u_spi\.bit_cnt\[2\]
*490 u_spi\.bit_cnt\[3\]
*491 u_spi\.bit_cnt\[4\]
*492 u_spi\.bit_cnt\[5\]
*493 u_spi\.bit_cnt\[6\]
*494 u_spi\.bit_cnt\[7\]
*495 u_spi\.cs_n_prev
*496 u_spi\.data_latch\[0\]
*497 u_spi\.data_latch\[1\]
*498 u_spi\.data_latch\[2\]
*499 u_spi\.data_latch\[3\]
*500 u_spi\.data_latch\[4\]
*501 u_spi\.data_latch\[5\]
*502 u_spi\.data_latch\[6\]
*503 u_spi\.data_latch\[7\]
*504 u_spi\.data_latch\[8\]
*505 u_spi\.data_latch\[9\]
*506 u_spi\.mosi_reg\[0\]
*507 u_spi\.mosi_reg\[1\]
*508 u_spi\.mosi_reg\[2\]
*509 u_spi\.mosi_reg\[3\]
*510 u_spi\.mosi_reg\[4\]
*511 u_spi\.mosi_reg\[5\]
*512 u_spi\.mosi_reg\[6\]
*513 u_spi\.mosi_reg\[7\]
*514 u_spi\.mosi_reg\[8\]
*515 u_spi\.mosi_reg\[9\]
*516 u_spi\.shift_reg\[0\]
*517 u_spi\.shift_reg\[1\]
*518 u_spi\.shift_reg\[2\]
*519 u_spi\.shift_reg\[3\]
*520 u_spi\.shift_reg\[4\]
*521 u_spi\.shift_reg\[5\]
*522 u_spi\.shift_reg\[6\]
*523 u_spi\.shift_reg\[7\]
*524 u_spi\.shift_reg\[8\]
*525 u_spi\.shift_reg\[9\]
*526 FILLER_0_138
*527 FILLER_0_172
*528 FILLER_0_176
*529 FILLER_0_193
*530 FILLER_0_2
*531 FILLER_0_201
*532 FILLER_0_203
*533 FILLER_0_206
*534 FILLER_0_240
*535 FILLER_0_274
*536 FILLER_0_308
*537 FILLER_0_324
*538 FILLER_10_10
*539 FILLER_10_107
*540 FILLER_10_139
*541 FILLER_10_14
*542 FILLER_10_155
*543 FILLER_10_163
*544 FILLER_10_172
*545 FILLER_10_174
*546 FILLER_10_2
*547 FILLER_10_213
*548 FILLER_10_237
*549 FILLER_10_253
*550 FILLER_10_255
*551 FILLER_10_285
*552 FILLER_10_305
*553 FILLER_10_313
*554 FILLER_10_317
*555 FILLER_10_32
*556 FILLER_10_325
*557 FILLER_10_34
*558 FILLER_10_37
*559 FILLER_10_53
*560 FILLER_10_61
*561 FILLER_10_70
*562 FILLER_10_76
*563 FILLER_10_78
*564 FILLER_10_87
*565 FILLER_10_95
*566 FILLER_10_99
*567 FILLER_11_122
*568 FILLER_11_193
*569 FILLER_11_2
*570 FILLER_11_203
*571 FILLER_11_207
*572 FILLER_11_209
*573 FILLER_11_224
*574 FILLER_11_256
*575 FILLER_11_272
*576 FILLER_11_282
*577 FILLER_11_290
*578 FILLER_11_294
*579 FILLER_11_314
*580 FILLER_11_322
*581 FILLER_11_47
*582 FILLER_11_55
*583 FILLER_11_6
*584 FILLER_12_102
*585 FILLER_12_104
*586 FILLER_12_107
*587 FILLER_12_115
*588 FILLER_12_119
*589 FILLER_12_154
*590 FILLER_12_158
*591 FILLER_12_18
*592 FILLER_12_20
*593 FILLER_12_227
*594 FILLER_12_243
*595 FILLER_12_247
*596 FILLER_12_255
*597 FILLER_12_27
*598 FILLER_12_317
*599 FILLER_12_325
*600 FILLER_12_37
*601 FILLER_12_45
*602 FILLER_12_49
*603 FILLER_12_51
*604 FILLER_12_66
*605 FILLER_12_82
*606 FILLER_12_84
*607 FILLER_12_90
*608 FILLER_12_98
*609 FILLER_13_119
*610 FILLER_13_127
*611 FILLER_13_129
*612 FILLER_13_138
*613 FILLER_13_142
*614 FILLER_13_158
*615 FILLER_13_166
*616 FILLER_13_168
*617 FILLER_13_18
*618 FILLER_13_186
*619 FILLER_13_202
*620 FILLER_13_212
*621 FILLER_13_220
*622 FILLER_13_224
*623 FILLER_13_259
*624 FILLER_13_26
*625 FILLER_13_278
*626 FILLER_13_282
*627 FILLER_13_290
*628 FILLER_13_294
*629 FILLER_13_309
*630 FILLER_13_325
*631 FILLER_13_43
*632 FILLER_13_59
*633 FILLER_13_84
*634 FILLER_14_104
*635 FILLER_14_121
*636 FILLER_14_129
*637 FILLER_14_164
*638 FILLER_14_172
*639 FILLER_14_174
*640 FILLER_14_177
*641 FILLER_14_193
*642 FILLER_14_195
*643 FILLER_14_2
*644 FILLER_14_201
*645 FILLER_14_217
*646 FILLER_14_225
*647 FILLER_14_235
*648 FILLER_14_247
*649 FILLER_14_279
*650 FILLER_14_29
*651 FILLER_14_295
*652 FILLER_14_303
*653 FILLER_14_312
*654 FILLER_14_314
*655 FILLER_14_317
*656 FILLER_14_325
*657 FILLER_14_33
*658 FILLER_14_37
*659 FILLER_14_53
*660 FILLER_14_6
*661 FILLER_14_61
*662 FILLER_14_69
*663 FILLER_14_73
*664 FILLER_14_80
*665 FILLER_14_96
*666 FILLER_15_105
*667 FILLER_15_121
*668 FILLER_15_129
*669 FILLER_15_137
*670 FILLER_15_139
*671 FILLER_15_142
*672 FILLER_15_158
*673 FILLER_15_166
*674 FILLER_15_170
*675 FILLER_15_183
*676 FILLER_15_187
*677 FILLER_15_189
*678 FILLER_15_2
*679 FILLER_15_212
*680 FILLER_15_244
*681 FILLER_15_260
*682 FILLER_15_264
*683 FILLER_15_282
*684 FILLER_15_290
*685 FILLER_15_323
*686 FILLER_15_325
*687 FILLER_15_41
*688 FILLER_15_57
*689 FILLER_15_6
*690 FILLER_15_65
*691 FILLER_15_69
*692 FILLER_15_72
*693 FILLER_15_76
*694 FILLER_15_85
*695 FILLER_15_93
*696 FILLER_15_97
*697 FILLER_15_99
*698 FILLER_16_102
*699 FILLER_16_104
*700 FILLER_16_107
*701 FILLER_16_139
*702 FILLER_16_155
*703 FILLER_16_163
*704 FILLER_16_167
*705 FILLER_16_169
*706 FILLER_16_177
*707 FILLER_16_190
*708 FILLER_16_215
*709 FILLER_16_223
*710 FILLER_16_227
*711 FILLER_16_229
*712 FILLER_16_238
*713 FILLER_16_24
*714 FILLER_16_242
*715 FILLER_16_244
*716 FILLER_16_253
*717 FILLER_16_261
*718 FILLER_16_292
*719 FILLER_16_296
*720 FILLER_16_312
*721 FILLER_16_314
*722 FILLER_16_317
*723 FILLER_16_325
*724 FILLER_16_33
*725 FILLER_16_37
*726 FILLER_16_45
*727 FILLER_16_49
*728 FILLER_16_51
*729 FILLER_16_74
*730 FILLER_16_90
*731 FILLER_16_98
*732 FILLER_17_114
*733 FILLER_17_130
*734 FILLER_17_138
*735 FILLER_17_142
*736 FILLER_17_158
*737 FILLER_17_166
*738 FILLER_17_170
*739 FILLER_17_212
*740 FILLER_17_228
*741 FILLER_17_264
*742 FILLER_17_282
*743 FILLER_17_290
*744 FILLER_17_294
*745 FILLER_17_325
*746 FILLER_17_72
*747 FILLER_17_76
*748 FILLER_18_107
*749 FILLER_18_120
*750 FILLER_18_128
*751 FILLER_18_132
*752 FILLER_18_134
*753 FILLER_18_169
*754 FILLER_18_173
*755 FILLER_18_177
*756 FILLER_18_241
*757 FILLER_18_247
*758 FILLER_18_26
*759 FILLER_18_279
*760 FILLER_18_295
*761 FILLER_18_303
*762 FILLER_18_307
*763 FILLER_18_313
*764 FILLER_18_317
*765 FILLER_18_325
*766 FILLER_18_34
*767 FILLER_18_37
*768 FILLER_18_45
*769 FILLER_18_49
*770 FILLER_18_60
*771 FILLER_18_68
*772 FILLER_18_72
*773 FILLER_18_74
*774 FILLER_18_92
*775 FILLER_19_120
*776 FILLER_19_142
*777 FILLER_19_150
*778 FILLER_19_158
*779 FILLER_19_178
*780 FILLER_19_194
*781 FILLER_19_198
*782 FILLER_19_2
*783 FILLER_19_207
*784 FILLER_19_209
*785 FILLER_19_21
*786 FILLER_19_212
*787 FILLER_19_262
*788 FILLER_19_264
*789 FILLER_19_282
*790 FILLER_19_298
*791 FILLER_19_302
*792 FILLER_19_309
*793 FILLER_19_325
*794 FILLER_19_53
*795 FILLER_19_6
*796 FILLER_19_69
*797 FILLER_19_72
*798 FILLER_19_74
*799 FILLER_19_8
*800 FILLER_19_88
*801 FILLER_1_136
*802 FILLER_1_142
*803 FILLER_1_150
*804 FILLER_1_152
*805 FILLER_1_18
*806 FILLER_1_187
*807 FILLER_1_2
*808 FILLER_1_203
*809 FILLER_1_207
*810 FILLER_1_209
*811 FILLER_1_212
*812 FILLER_1_22
*813 FILLER_1_228
*814 FILLER_1_236
*815 FILLER_1_238
*816 FILLER_1_273
*817 FILLER_1_277
*818 FILLER_1_279
*819 FILLER_1_311
*820 FILLER_1_319
*821 FILLER_1_323
*822 FILLER_1_325
*823 FILLER_1_58
*824 FILLER_1_62
*825 FILLER_1_69
*826 FILLER_20_102
*827 FILLER_20_104
*828 FILLER_20_115
*829 FILLER_20_177
*830 FILLER_20_18
*831 FILLER_20_185
*832 FILLER_20_189
*833 FILLER_20_191
*834 FILLER_20_197
*835 FILLER_20_199
*836 FILLER_20_223
*837 FILLER_20_231
*838 FILLER_20_243
*839 FILLER_20_253
*840 FILLER_20_261
*841 FILLER_20_28
*842 FILLER_20_292
*843 FILLER_20_296
*844 FILLER_20_298
*845 FILLER_20_308
*846 FILLER_20_312
*847 FILLER_20_314
*848 FILLER_20_317
*849 FILLER_20_32
*850 FILLER_20_325
*851 FILLER_20_34
*852 FILLER_20_37
*853 FILLER_20_53
*854 FILLER_20_61
*855 FILLER_20_70
*856 FILLER_21_104
*857 FILLER_21_120
*858 FILLER_21_128
*859 FILLER_21_142
*860 FILLER_21_174
*861 FILLER_21_178
*862 FILLER_21_184
*863 FILLER_21_188
*864 FILLER_21_2
*865 FILLER_21_205
*866 FILLER_21_209
*867 FILLER_21_220
*868 FILLER_21_228
*869 FILLER_21_271
*870 FILLER_21_279
*871 FILLER_21_282
*872 FILLER_21_290
*873 FILLER_21_294
*874 FILLER_21_296
*875 FILLER_21_40
*876 FILLER_21_56
*877 FILLER_21_68
*878 FILLER_21_72
*879 FILLER_22_101
*880 FILLER_22_115
*881 FILLER_22_173
*882 FILLER_22_177
*883 FILLER_22_18
*884 FILLER_22_181
*885 FILLER_22_195
*886 FILLER_22_197
*887 FILLER_22_211
*888 FILLER_22_227
*889 FILLER_22_235
*890 FILLER_22_247
*891 FILLER_22_251
*892 FILLER_22_258
*893 FILLER_22_266
*894 FILLER_22_270
*895 FILLER_22_272
*896 FILLER_22_311
*897 FILLER_22_317
*898 FILLER_22_325
*899 FILLER_22_37
*900 FILLER_22_45
*901 FILLER_22_49
*902 FILLER_22_67
*903 FILLER_22_77
*904 FILLER_22_81
*905 FILLER_22_93
*906 FILLER_23_104
*907 FILLER_23_142
*908 FILLER_23_158
*909 FILLER_23_175
*910 FILLER_23_191
*911 FILLER_23_195
*912 FILLER_23_203
*913 FILLER_23_207
*914 FILLER_23_209
*915 FILLER_23_212
*916 FILLER_23_276
*917 FILLER_23_297
*918 FILLER_23_301
*919 FILLER_23_303
*920 FILLER_23_308
*921 FILLER_23_324
*922 FILLER_23_72
*923 FILLER_23_80
*924 FILLER_23_90
*925 FILLER_24_107
*926 FILLER_24_111
*927 FILLER_24_117
*928 FILLER_24_133
*929 FILLER_24_141
*930 FILLER_24_174
*931 FILLER_24_177
*932 FILLER_24_241
*933 FILLER_24_247
*934 FILLER_24_26
*935 FILLER_24_279
*936 FILLER_24_295
*937 FILLER_24_303
*938 FILLER_24_314
*939 FILLER_24_317
*940 FILLER_24_325
*941 FILLER_24_34
*942 FILLER_24_37
*943 FILLER_24_41
*944 FILLER_24_43
*945 FILLER_24_94
*946 FILLER_25_112
*947 FILLER_25_128
*948 FILLER_25_136
*949 FILLER_25_142
*950 FILLER_25_150
*951 FILLER_25_154
*952 FILLER_25_185
*953 FILLER_25_201
*954 FILLER_25_209
*955 FILLER_25_212
*956 FILLER_25_214
*957 FILLER_25_223
*958 FILLER_25_239
*959 FILLER_25_274
*960 FILLER_25_278
*961 FILLER_25_282
*962 FILLER_25_290
*963 FILLER_25_294
*964 FILLER_25_296
*965 FILLER_25_36
*966 FILLER_25_52
*967 FILLER_25_64
*968 FILLER_25_68
*969 FILLER_25_72
*970 FILLER_25_93
*971 FILLER_25_97
*972 FILLER_26_103
*973 FILLER_26_141
*974 FILLER_26_149
*975 FILLER_26_153
*976 FILLER_26_169
*977 FILLER_26_173
*978 FILLER_26_206
*979 FILLER_26_208
*980 FILLER_26_261
*981 FILLER_26_265
*982 FILLER_26_267
*983 FILLER_26_297
*984 FILLER_26_317
*985 FILLER_26_325
*986 FILLER_26_34
*987 FILLER_26_37
*988 FILLER_26_45
*989 FILLER_26_49
*990 FILLER_26_63
*991 FILLER_26_95
*992 FILLER_27_101
*993 FILLER_27_109
*994 FILLER_27_116
*995 FILLER_27_124
*996 FILLER_27_128
*997 FILLER_27_130
*998 FILLER_27_139
*999 FILLER_27_192
*1000 FILLER_27_2
*1001 FILLER_27_208
*1002 FILLER_27_223
*1003 FILLER_27_254
*1004 FILLER_27_270
*1005 FILLER_27_278
*1006 FILLER_27_282
*1007 FILLER_27_298
*1008 FILLER_27_302
*1009 FILLER_27_31
*1010 FILLER_27_319
*1011 FILLER_27_323
*1012 FILLER_27_325
*1013 FILLER_27_33
*1014 FILLER_27_72
*1015 FILLER_27_76
*1016 FILLER_27_78
*1017 FILLER_27_85
*1018 FILLER_28_107
*1019 FILLER_28_109
*1020 FILLER_28_126
*1021 FILLER_28_130
*1022 FILLER_28_161
*1023 FILLER_28_169
*1024 FILLER_28_173
*1025 FILLER_28_177
*1026 FILLER_28_18
*1027 FILLER_28_194
*1028 FILLER_28_226
*1029 FILLER_28_240
*1030 FILLER_28_244
*1031 FILLER_28_247
*1032 FILLER_28_263
*1033 FILLER_28_271
*1034 FILLER_28_288
*1035 FILLER_28_292
*1036 FILLER_28_294
*1037 FILLER_28_313
*1038 FILLER_28_317
*1039 FILLER_28_325
*1040 FILLER_28_34
*1041 FILLER_28_37
*1042 FILLER_28_53
*1043 FILLER_28_61
*1044 FILLER_28_65
*1045 FILLER_28_67
*1046 FILLER_28_81
*1047 FILLER_28_97
*1048 FILLER_29_124
*1049 FILLER_29_142
*1050 FILLER_29_150
*1051 FILLER_29_152
*1052 FILLER_29_168
*1053 FILLER_29_176
*1054 FILLER_29_212
*1055 FILLER_29_244
*1056 FILLER_29_260
*1057 FILLER_29_264
*1058 FILLER_29_282
*1059 FILLER_29_290
*1060 FILLER_29_323
*1061 FILLER_29_325
*1062 FILLER_29_36
*1063 FILLER_29_44
*1064 FILLER_29_49
*1065 FILLER_29_53
*1066 FILLER_29_59
*1067 FILLER_29_72
*1068 FILLER_29_84
*1069 FILLER_29_88
*1070 FILLER_2_10
*1071 FILLER_2_103
*1072 FILLER_2_107
*1073 FILLER_2_111
*1074 FILLER_2_146
*1075 FILLER_2_162
*1076 FILLER_2_17
*1077 FILLER_2_174
*1078 FILLER_2_177
*1079 FILLER_2_195
*1080 FILLER_2_2
*1081 FILLER_2_237
*1082 FILLER_2_25
*1083 FILLER_2_253
*1084 FILLER_2_261
*1085 FILLER_2_292
*1086 FILLER_2_296
*1087 FILLER_2_298
*1088 FILLER_2_317
*1089 FILLER_2_321
*1090 FILLER_2_37
*1091 FILLER_2_39
*1092 FILLER_2_48
*1093 FILLER_2_56
*1094 FILLER_2_60
*1095 FILLER_30_115
*1096 FILLER_30_120
*1097 FILLER_30_136
*1098 FILLER_30_140
*1099 FILLER_30_142
*1100 FILLER_30_172
*1101 FILLER_30_174
*1102 FILLER_30_192
*1103 FILLER_30_2
*1104 FILLER_30_200
*1105 FILLER_30_204
*1106 FILLER_30_240
*1107 FILLER_30_244
*1108 FILLER_30_261
*1109 FILLER_30_292
*1110 FILLER_30_296
*1111 FILLER_30_298
*1112 FILLER_30_317
*1113 FILLER_30_325
*1114 FILLER_30_34
*1115 FILLER_30_37
*1116 FILLER_30_97
*1117 FILLER_30_99
*1118 FILLER_31_135
*1119 FILLER_31_139
*1120 FILLER_31_171
*1121 FILLER_31_18
*1122 FILLER_31_2
*1123 FILLER_31_204
*1124 FILLER_31_208
*1125 FILLER_31_227
*1126 FILLER_31_235
*1127 FILLER_31_239
*1128 FILLER_31_274
*1129 FILLER_31_278
*1130 FILLER_31_282
*1131 FILLER_31_290
*1132 FILLER_31_324
*1133 FILLER_31_60
*1134 FILLER_31_68
*1135 FILLER_31_72
*1136 FILLER_31_80
*1137 FILLER_31_92
*1138 FILLER_31_96
*1139 FILLER_31_98
*1140 FILLER_32_107
*1141 FILLER_32_123
*1142 FILLER_32_18
*1143 FILLER_32_235
*1144 FILLER_32_243
*1145 FILLER_32_247
*1146 FILLER_32_279
*1147 FILLER_32_295
*1148 FILLER_32_325
*1149 FILLER_32_34
*1150 FILLER_32_42
*1151 FILLER_32_51
*1152 FILLER_32_67
*1153 FILLER_32_71
*1154 FILLER_32_73
*1155 FILLER_32_81
*1156 FILLER_32_97
*1157 FILLER_33_120
*1158 FILLER_33_128
*1159 FILLER_33_137
*1160 FILLER_33_139
*1161 FILLER_33_142
*1162 FILLER_33_150
*1163 FILLER_33_154
*1164 FILLER_33_171
*1165 FILLER_33_203
*1166 FILLER_33_207
*1167 FILLER_33_209
*1168 FILLER_33_212
*1169 FILLER_33_214
*1170 FILLER_33_252
*1171 FILLER_33_268
*1172 FILLER_33_276
*1173 FILLER_33_282
*1174 FILLER_33_290
*1175 FILLER_33_294
*1176 FILLER_33_36
*1177 FILLER_33_68
*1178 FILLER_33_72
*1179 FILLER_33_80
*1180 FILLER_33_84
*1181 FILLER_34_100
*1182 FILLER_34_104
*1183 FILLER_34_107
*1184 FILLER_34_115
*1185 FILLER_34_119
*1186 FILLER_34_177
*1187 FILLER_34_2
*1188 FILLER_34_209
*1189 FILLER_34_225
*1190 FILLER_34_242
*1191 FILLER_34_244
*1192 FILLER_34_247
*1193 FILLER_34_26
*1194 FILLER_34_263
*1195 FILLER_34_296
*1196 FILLER_34_300
*1197 FILLER_34_302
*1198 FILLER_34_307
*1199 FILLER_34_317
*1200 FILLER_34_325
*1201 FILLER_34_34
*1202 FILLER_34_37
*1203 FILLER_34_53
*1204 FILLER_34_61
*1205 FILLER_34_84
*1206 FILLER_35_157
*1207 FILLER_35_189
*1208 FILLER_35_208
*1209 FILLER_35_212
*1210 FILLER_35_220
*1211 FILLER_35_240
*1212 FILLER_35_248
*1213 FILLER_35_250
*1214 FILLER_35_257
*1215 FILLER_35_273
*1216 FILLER_35_277
*1217 FILLER_35_279
*1218 FILLER_35_325
*1219 FILLER_35_36
*1220 FILLER_35_54
*1221 FILLER_35_58
*1222 FILLER_36_10
*1223 FILLER_36_103
*1224 FILLER_36_107
*1225 FILLER_36_123
*1226 FILLER_36_127
*1227 FILLER_36_129
*1228 FILLER_36_159
*1229 FILLER_36_177
*1230 FILLER_36_2
*1231 FILLER_36_22
*1232 FILLER_36_243
*1233 FILLER_36_286
*1234 FILLER_36_294
*1235 FILLER_36_314
*1236 FILLER_36_317
*1237 FILLER_36_32
*1238 FILLER_36_325
*1239 FILLER_36_34
*1240 FILLER_36_37
*1241 FILLER_36_50
*1242 FILLER_36_57
*1243 FILLER_36_61
*1244 FILLER_36_63
*1245 FILLER_36_72
*1246 FILLER_36_83
*1247 FILLER_36_99
*1248 FILLER_37_10
*1249 FILLER_37_136
*1250 FILLER_37_14
*1251 FILLER_37_142
*1252 FILLER_37_158
*1253 FILLER_37_160
*1254 FILLER_37_2
*1255 FILLER_37_206
*1256 FILLER_37_212
*1257 FILLER_37_243
*1258 FILLER_37_245
*1259 FILLER_37_259
*1260 FILLER_37_275
*1261 FILLER_37_279
*1262 FILLER_37_282
*1263 FILLER_37_29
*1264 FILLER_37_298
*1265 FILLER_37_306
*1266 FILLER_37_323
*1267 FILLER_37_325
*1268 FILLER_37_61
*1269 FILLER_37_69
*1270 FILLER_37_72
*1271 FILLER_38_102
*1272 FILLER_38_104
*1273 FILLER_38_107
*1274 FILLER_38_171
*1275 FILLER_38_177
*1276 FILLER_38_2
*1277 FILLER_38_209
*1278 FILLER_38_225
*1279 FILLER_38_233
*1280 FILLER_38_235
*1281 FILLER_38_244
*1282 FILLER_38_247
*1283 FILLER_38_279
*1284 FILLER_38_295
*1285 FILLER_38_299
*1286 FILLER_38_309
*1287 FILLER_38_313
*1288 FILLER_38_317
*1289 FILLER_38_325
*1290 FILLER_38_34
*1291 FILLER_38_37
*1292 FILLER_38_69
*1293 FILLER_38_73
*1294 FILLER_38_75
*1295 FILLER_38_81
*1296 FILLER_38_89
*1297 FILLER_38_91
*1298 FILLER_38_98
*1299 FILLER_39_131
*1300 FILLER_39_139
*1301 FILLER_39_142
*1302 FILLER_39_146
*1303 FILLER_39_148
*1304 FILLER_39_164
*1305 FILLER_39_18
*1306 FILLER_39_180
*1307 FILLER_39_182
*1308 FILLER_39_198
*1309 FILLER_39_2
*1310 FILLER_39_206
*1311 FILLER_39_212
*1312 FILLER_39_228
*1313 FILLER_39_245
*1314 FILLER_39_277
*1315 FILLER_39_279
*1316 FILLER_39_282
*1317 FILLER_39_290
*1318 FILLER_39_30
*1319 FILLER_39_323
*1320 FILLER_39_325
*1321 FILLER_39_34
*1322 FILLER_39_36
*1323 FILLER_39_46
*1324 FILLER_39_62
*1325 FILLER_39_72
*1326 FILLER_39_80
*1327 FILLER_39_84
*1328 FILLER_39_93
*1329 FILLER_3_101
*1330 FILLER_3_125
*1331 FILLER_3_133
*1332 FILLER_3_137
*1333 FILLER_3_139
*1334 FILLER_3_142
*1335 FILLER_3_146
*1336 FILLER_3_148
*1337 FILLER_3_183
*1338 FILLER_3_187
*1339 FILLER_3_202
*1340 FILLER_3_212
*1341 FILLER_3_222
*1342 FILLER_3_226
*1343 FILLER_3_228
*1344 FILLER_3_263
*1345 FILLER_3_297
*1346 FILLER_3_305
*1347 FILLER_3_309
*1348 FILLER_3_42
*1349 FILLER_3_58
*1350 FILLER_3_66
*1351 FILLER_3_72
*1352 FILLER_3_89
*1353 FILLER_3_97
*1354 FILLER_40_10
*1355 FILLER_40_104
*1356 FILLER_40_107
*1357 FILLER_40_123
*1358 FILLER_40_131
*1359 FILLER_40_14
*1360 FILLER_40_164
*1361 FILLER_40_172
*1362 FILLER_40_174
*1363 FILLER_40_177
*1364 FILLER_40_179
*1365 FILLER_40_2
*1366 FILLER_40_209
*1367 FILLER_40_240
*1368 FILLER_40_244
*1369 FILLER_40_247
*1370 FILLER_40_289
*1371 FILLER_40_293
*1372 FILLER_40_31
*1373 FILLER_40_311
*1374 FILLER_40_317
*1375 FILLER_40_325
*1376 FILLER_40_37
*1377 FILLER_40_51
*1378 FILLER_40_55
*1379 FILLER_40_61
*1380 FILLER_40_77
*1381 FILLER_40_96
*1382 FILLER_41_104
*1383 FILLER_41_136
*1384 FILLER_41_142
*1385 FILLER_41_144
*1386 FILLER_41_160
*1387 FILLER_41_192
*1388 FILLER_41_208
*1389 FILLER_41_212
*1390 FILLER_41_220
*1391 FILLER_41_224
*1392 FILLER_41_246
*1393 FILLER_41_254
*1394 FILLER_41_273
*1395 FILLER_41_277
*1396 FILLER_41_279
*1397 FILLER_41_282
*1398 FILLER_41_290
*1399 FILLER_41_311
*1400 FILLER_41_319
*1401 FILLER_41_323
*1402 FILLER_41_325
*1403 FILLER_41_36
*1404 FILLER_41_40
*1405 FILLER_41_48
*1406 FILLER_41_60
*1407 FILLER_41_72
*1408 FILLER_41_82
*1409 FILLER_41_90
*1410 FILLER_42_104
*1411 FILLER_42_141
*1412 FILLER_42_145
*1413 FILLER_42_18
*1414 FILLER_42_192
*1415 FILLER_42_208
*1416 FILLER_42_216
*1417 FILLER_42_22
*1418 FILLER_42_220
*1419 FILLER_42_244
*1420 FILLER_42_247
*1421 FILLER_42_263
*1422 FILLER_42_280
*1423 FILLER_42_296
*1424 FILLER_42_298
*1425 FILLER_42_307
*1426 FILLER_42_317
*1427 FILLER_42_32
*1428 FILLER_42_325
*1429 FILLER_42_34
*1430 FILLER_42_37
*1431 FILLER_42_78
*1432 FILLER_42_96
*1433 FILLER_43_128
*1434 FILLER_43_136
*1435 FILLER_43_142
*1436 FILLER_43_150
*1437 FILLER_43_154
*1438 FILLER_43_199
*1439 FILLER_43_207
*1440 FILLER_43_209
*1441 FILLER_43_212
*1442 FILLER_43_242
*1443 FILLER_43_250
*1444 FILLER_43_282
*1445 FILLER_43_290
*1446 FILLER_43_321
*1447 FILLER_43_325
*1448 FILLER_43_57
*1449 FILLER_43_65
*1450 FILLER_43_72
*1451 FILLER_43_80
*1452 FILLER_43_82
*1453 FILLER_44_103
*1454 FILLER_44_107
*1455 FILLER_44_123
*1456 FILLER_44_131
*1457 FILLER_44_133
*1458 FILLER_44_163
*1459 FILLER_44_171
*1460 FILLER_44_177
*1461 FILLER_44_18
*1462 FILLER_44_2
*1463 FILLER_44_241
*1464 FILLER_44_247
*1465 FILLER_44_255
*1466 FILLER_44_259
*1467 FILLER_44_273
*1468 FILLER_44_305
*1469 FILLER_44_313
*1470 FILLER_44_317
*1471 FILLER_44_325
*1472 FILLER_44_53
*1473 FILLER_44_85
*1474 FILLER_44_91
*1475 FILLER_44_99
*1476 FILLER_45_104
*1477 FILLER_45_138
*1478 FILLER_45_146
*1479 FILLER_45_150
*1480 FILLER_45_152
*1481 FILLER_45_169
*1482 FILLER_45_172
*1483 FILLER_45_2
*1484 FILLER_45_206
*1485 FILLER_45_240
*1486 FILLER_45_274
*1487 FILLER_45_308
*1488 FILLER_45_324
*1489 FILLER_45_36
*1490 FILLER_45_70
*1491 FILLER_4_104
*1492 FILLER_4_113
*1493 FILLER_4_145
*1494 FILLER_4_161
*1495 FILLER_4_169
*1496 FILLER_4_173
*1497 FILLER_4_177
*1498 FILLER_4_185
*1499 FILLER_4_197
*1500 FILLER_4_2
*1501 FILLER_4_213
*1502 FILLER_4_221
*1503 FILLER_4_225
*1504 FILLER_4_227
*1505 FILLER_4_236
*1506 FILLER_4_24
*1507 FILLER_4_244
*1508 FILLER_4_247
*1509 FILLER_4_279
*1510 FILLER_4_295
*1511 FILLER_4_317
*1512 FILLER_4_32
*1513 FILLER_4_325
*1514 FILLER_4_34
*1515 FILLER_4_37
*1516 FILLER_4_53
*1517 FILLER_4_88
*1518 FILLER_5_136
*1519 FILLER_5_176
*1520 FILLER_5_178
*1521 FILLER_5_212
*1522 FILLER_5_220
*1523 FILLER_5_222
*1524 FILLER_5_257
*1525 FILLER_5_273
*1526 FILLER_5_277
*1527 FILLER_5_279
*1528 FILLER_5_282
*1529 FILLER_5_36
*1530 FILLER_5_68
*1531 FILLER_5_72
*1532 FILLER_6_102
*1533 FILLER_6_104
*1534 FILLER_6_107
*1535 FILLER_6_123
*1536 FILLER_6_131
*1537 FILLER_6_133
*1538 FILLER_6_144
*1539 FILLER_6_160
*1540 FILLER_6_168
*1541 FILLER_6_172
*1542 FILLER_6_174
*1543 FILLER_6_177
*1544 FILLER_6_18
*1545 FILLER_6_182
*1546 FILLER_6_184
*1547 FILLER_6_205
*1548 FILLER_6_221
*1549 FILLER_6_223
*1550 FILLER_6_232
*1551 FILLER_6_236
*1552 FILLER_6_238
*1553 FILLER_6_247
*1554 FILLER_6_255
*1555 FILLER_6_274
*1556 FILLER_6_28
*1557 FILLER_6_32
*1558 FILLER_6_321
*1559 FILLER_6_325
*1560 FILLER_6_34
*1561 FILLER_6_37
*1562 FILLER_6_45
*1563 FILLER_6_49
*1564 FILLER_6_57
*1565 FILLER_6_69
*1566 FILLER_6_73
*1567 FILLER_6_75
*1568 FILLER_6_98
*1569 FILLER_7_142
*1570 FILLER_7_158
*1571 FILLER_7_212
*1572 FILLER_7_244
*1573 FILLER_7_248
*1574 FILLER_7_250
*1575 FILLER_7_282
*1576 FILLER_7_284
*1577 FILLER_7_315
*1578 FILLER_7_323
*1579 FILLER_7_325
*1580 FILLER_8_122
*1581 FILLER_8_126
*1582 FILLER_8_128
*1583 FILLER_8_145
*1584 FILLER_8_161
*1585 FILLER_8_170
*1586 FILLER_8_174
*1587 FILLER_8_177
*1588 FILLER_8_208
*1589 FILLER_8_24
*1590 FILLER_8_240
*1591 FILLER_8_244
*1592 FILLER_8_247
*1593 FILLER_8_263
*1594 FILLER_8_281
*1595 FILLER_8_289
*1596 FILLER_8_317
*1597 FILLER_8_32
*1598 FILLER_8_325
*1599 FILLER_8_34
*1600 FILLER_8_37
*1601 FILLER_8_53
*1602 FILLER_8_63
*1603 FILLER_8_71
*1604 FILLER_8_73
*1605 FILLER_8_98
*1606 FILLER_9_129
*1607 FILLER_9_176
*1608 FILLER_9_186
*1609 FILLER_9_190
*1610 FILLER_9_192
*1611 FILLER_9_218
*1612 FILLER_9_226
*1613 FILLER_9_261
*1614 FILLER_9_277
*1615 FILLER_9_279
*1616 FILLER_9_282
*1617 FILLER_9_290
*1618 FILLER_9_292
*1619 FILLER_9_322
*1620 FILLER_9_36
*1621 FILLER_9_52
*1622 FILLER_9_56
*1623 FILLER_9_63
*1624 FILLER_9_67
*1625 FILLER_9_69
*1626 FILLER_9_72
*1627 FILLER_9_76
*1628 FILLER_9_78
*1629 PHY_EDGE_ROW_0_Left_46
*1630 PHY_EDGE_ROW_0_Right_0
*1631 PHY_EDGE_ROW_10_Left_56
*1632 PHY_EDGE_ROW_10_Right_10
*1633 PHY_EDGE_ROW_11_Left_57
*1634 PHY_EDGE_ROW_11_Right_11
*1635 PHY_EDGE_ROW_12_Left_58
*1636 PHY_EDGE_ROW_12_Right_12
*1637 PHY_EDGE_ROW_13_Left_59
*1638 PHY_EDGE_ROW_13_Right_13
*1639 PHY_EDGE_ROW_14_Left_60
*1640 PHY_EDGE_ROW_14_Right_14
*1641 PHY_EDGE_ROW_15_Left_61
*1642 PHY_EDGE_ROW_15_Right_15
*1643 PHY_EDGE_ROW_16_Left_62
*1644 PHY_EDGE_ROW_16_Right_16
*1645 PHY_EDGE_ROW_17_Left_63
*1646 PHY_EDGE_ROW_17_Right_17
*1647 PHY_EDGE_ROW_18_Left_64
*1648 PHY_EDGE_ROW_18_Right_18
*1649 PHY_EDGE_ROW_19_Left_65
*1650 PHY_EDGE_ROW_19_Right_19
*1651 PHY_EDGE_ROW_1_Left_47
*1652 PHY_EDGE_ROW_1_Right_1
*1653 PHY_EDGE_ROW_20_Left_66
*1654 PHY_EDGE_ROW_20_Right_20
*1655 PHY_EDGE_ROW_21_Left_67
*1656 PHY_EDGE_ROW_21_Right_21
*1657 PHY_EDGE_ROW_22_Left_68
*1658 PHY_EDGE_ROW_22_Right_22
*1659 PHY_EDGE_ROW_23_Left_69
*1660 PHY_EDGE_ROW_23_Right_23
*1661 PHY_EDGE_ROW_24_Left_70
*1662 PHY_EDGE_ROW_24_Right_24
*1663 PHY_EDGE_ROW_25_Left_71
*1664 PHY_EDGE_ROW_25_Right_25
*1665 PHY_EDGE_ROW_26_Left_72
*1666 PHY_EDGE_ROW_26_Right_26
*1667 PHY_EDGE_ROW_27_Left_73
*1668 PHY_EDGE_ROW_27_Right_27
*1669 PHY_EDGE_ROW_28_Left_74
*1670 PHY_EDGE_ROW_28_Right_28
*1671 PHY_EDGE_ROW_29_Left_75
*1672 PHY_EDGE_ROW_29_Right_29
*1673 PHY_EDGE_ROW_2_Left_48
*1674 PHY_EDGE_ROW_2_Right_2
*1675 PHY_EDGE_ROW_30_Left_76
*1676 PHY_EDGE_ROW_30_Right_30
*1677 PHY_EDGE_ROW_31_Left_77
*1678 PHY_EDGE_ROW_31_Right_31
*1679 PHY_EDGE_ROW_32_Left_78
*1680 PHY_EDGE_ROW_32_Right_32
*1681 PHY_EDGE_ROW_33_Left_79
*1682 PHY_EDGE_ROW_33_Right_33
*1683 PHY_EDGE_ROW_34_Left_80
*1684 PHY_EDGE_ROW_34_Right_34
*1685 PHY_EDGE_ROW_35_Left_81
*1686 PHY_EDGE_ROW_35_Right_35
*1687 PHY_EDGE_ROW_36_Left_82
*1688 PHY_EDGE_ROW_36_Right_36
*1689 PHY_EDGE_ROW_37_Left_83