* NGSPICE file created from digital_wrapper.ext - technology: gf180mcuD

* Black-box entry subcircuit for gf180mcu_fd_sc_mcu7t5v0__fill_2 abstract view
.subckt gf180mcu_fd_sc_mcu7t5v0__fill_2 VDD VNW VPW VSS
.ends

* Black-box entry subcircuit for gf180mcu_fd_sc_mcu7t5v0__fillcap_8 abstract view
.subckt gf180mcu_fd_sc_mcu7t5v0__fillcap_8 VDD VNW VPW VSS
.ends

* Black-box entry subcircuit for gf180mcu_fd_sc_mcu7t5v0__fillcap_4 abstract view
.subckt gf180mcu_fd_sc_mcu7t5v0__fillcap_4 VDD VNW VPW VSS
.ends

* Black-box entry subcircuit for gf180mcu_fd_sc_mcu7t5v0__filltie abstract view
.subckt gf180mcu_fd_sc_mcu7t5v0__filltie VDD VSS
.ends

* Black-box entry subcircuit for gf180mcu_fd_sc_mcu7t5v0__aoi21_1 abstract view
.subckt gf180mcu_fd_sc_mcu7t5v0__aoi21_1 A1 A2 B ZN VDD VNW VPW VSS
.ends

* Black-box entry subcircuit for gf180mcu_fd_sc_mcu7t5v0__aoi22_1 abstract view
.subckt gf180mcu_fd_sc_mcu7t5v0__aoi22_1 A1 A2 B1 B2 ZN VDD VNW VPW VSS
.ends

* Black-box entry subcircuit for gf180mcu_fd_sc_mcu7t5v0__fillcap_32 abstract view
.subckt gf180mcu_fd_sc_mcu7t5v0__fillcap_32 VDD VNW VPW VSS
.ends

* Black-box entry subcircuit for gf180mcu_fd_sc_mcu7t5v0__clkinv_1 abstract view
.subckt gf180mcu_fd_sc_mcu7t5v0__clkinv_1 I ZN VDD VNW VPW VSS
.ends

* Black-box entry subcircuit for gf180mcu_fd_sc_mcu7t5v0__fillcap_16 abstract view
.subckt gf180mcu_fd_sc_mcu7t5v0__fillcap_16 VDD VNW VPW VSS
.ends

* Black-box entry subcircuit for gf180mcu_fd_sc_mcu7t5v0__fill_1 abstract view
.subckt gf180mcu_fd_sc_mcu7t5v0__fill_1 VDD VNW VPW VSS
.ends

* Black-box entry subcircuit for gf180mcu_fd_sc_mcu7t5v0__dffq_1 abstract view
.subckt gf180mcu_fd_sc_mcu7t5v0__dffq_1 D CLK Q VDD VNW VPW VSS
.ends

* Black-box entry subcircuit for gf180mcu_fd_sc_mcu7t5v0__endcap abstract view
.subckt gf180mcu_fd_sc_mcu7t5v0__endcap VDD VSS
.ends

* Black-box entry subcircuit for gf180mcu_fd_sc_mcu7t5v0__dffrnq_1 abstract view
.subckt gf180mcu_fd_sc_mcu7t5v0__dffrnq_1 D RN CLK Q VDD VNW VPW VSS
.ends

* Black-box entry subcircuit for gf180mcu_fd_sc_mcu7t5v0__and2_1 abstract view
.subckt gf180mcu_fd_sc_mcu7t5v0__and2_1 A1 A2 Z VDD VNW VPW VSS
.ends

* Black-box entry subcircuit for gf180mcu_fd_sc_mcu7t5v0__mux2_2 abstract view
.subckt gf180mcu_fd_sc_mcu7t5v0__mux2_2 I0 I1 S Z VDD VNW VPW VSS
.ends

* Black-box entry subcircuit for gf180mcu_fd_sc_mcu7t5v0__dlyb_1 abstract view
.subckt gf180mcu_fd_sc_mcu7t5v0__dlyb_1 I Z VDD VNW VPW VSS
.ends

* Black-box entry subcircuit for gf180mcu_fd_sc_mcu7t5v0__nand2_1 abstract view
.subckt gf180mcu_fd_sc_mcu7t5v0__nand2_1 A1 A2 ZN VDD VNW VPW VSS
.ends

* Black-box entry subcircuit for gf180mcu_fd_sc_mcu7t5v0__nor2_1 abstract view
.subckt gf180mcu_fd_sc_mcu7t5v0__nor2_1 A1 A2 ZN VDD VNW VPW VSS
.ends

* Black-box entry subcircuit for gf180mcu_fd_sc_mcu7t5v0__clkbuf_16 abstract view
.subckt gf180mcu_fd_sc_mcu7t5v0__clkbuf_16 I Z VDD VNW VPW VSS
.ends

* Black-box entry subcircuit for gf180mcu_fd_sc_mcu7t5v0__buf_4 abstract view
.subckt gf180mcu_fd_sc_mcu7t5v0__buf_4 I Z VDD VNW VPW VSS
.ends

* Black-box entry subcircuit for gf180mcu_fd_sc_mcu7t5v0__fillcap_64 abstract view
.subckt gf180mcu_fd_sc_mcu7t5v0__fillcap_64 VDD VNW VPW VSS
.ends

* Black-box entry subcircuit for gf180mcu_fd_sc_mcu7t5v0__oai211_1 abstract view
.subckt gf180mcu_fd_sc_mcu7t5v0__oai211_1 A1 A2 B C ZN VDD VNW VPW VSS
.ends

* Black-box entry subcircuit for gf180mcu_fd_sc_mcu7t5v0__dffsnq_1 abstract view
.subckt gf180mcu_fd_sc_mcu7t5v0__dffsnq_1 D SETN CLK Q VDD VNW VPW VSS
.ends

* Black-box entry subcircuit for gf180mcu_fd_sc_mcu7t5v0__or2_1 abstract view
.subckt gf180mcu_fd_sc_mcu7t5v0__or2_1 A1 A2 Z VDD VNW VPW VSS
.ends

* Black-box entry subcircuit for gf180mcu_fd_sc_mcu7t5v0__aoi222_1 abstract view
.subckt gf180mcu_fd_sc_mcu7t5v0__aoi222_1 A1 A2 B1 B2 C1 C2 ZN VDD VNW VPW VSS
.ends

* Black-box entry subcircuit for gf180mcu_fd_sc_mcu7t5v0__xor2_1 abstract view
.subckt gf180mcu_fd_sc_mcu7t5v0__xor2_1 A1 A2 Z VDD VNW VPW VSS
.ends

* Black-box entry subcircuit for gf180mcu_fd_sc_mcu7t5v0__nor4_1 abstract view
.subckt gf180mcu_fd_sc_mcu7t5v0__nor4_1 A1 A2 A3 A4 ZN VDD VNW VPW VSS
.ends

* Black-box entry subcircuit for gf180mcu_fd_sc_mcu7t5v0__xor3_1 abstract view
.subckt gf180mcu_fd_sc_mcu7t5v0__xor3_1 A1 A2 A3 Z VDD VNW VPW VSS
.ends

* Black-box entry subcircuit for gf180mcu_fd_sc_mcu7t5v0__clkbuf_2 abstract view
.subckt gf180mcu_fd_sc_mcu7t5v0__clkbuf_2 I Z VDD VNW VPW VSS
.ends

* Black-box entry subcircuit for gf180mcu_fd_sc_mcu7t5v0__oai31_1 abstract view
.subckt gf180mcu_fd_sc_mcu7t5v0__oai31_1 A1 A2 A3 B ZN VDD VNW VPW VSS
.ends

* Black-box entry subcircuit for gf180mcu_fd_sc_mcu7t5v0__xnor2_1 abstract view
.subckt gf180mcu_fd_sc_mcu7t5v0__xnor2_1 A1 A2 ZN VDD VNW VPW VSS
.ends

* Black-box entry subcircuit for gf180mcu_fd_sc_mcu7t5v0__nand4_1 abstract view
.subckt gf180mcu_fd_sc_mcu7t5v0__nand4_1 A1 A2 A3 A4 ZN VDD VNW VPW VSS
.ends

* Black-box entry subcircuit for gf180mcu_fd_sc_mcu7t5v0__nand3_1 abstract view
.subckt gf180mcu_fd_sc_mcu7t5v0__nand3_1 A1 A2 A3 ZN VDD VNW VPW VSS
.ends

* Black-box entry subcircuit for gf180mcu_fd_sc_mcu7t5v0__oai21_1 abstract view
.subckt gf180mcu_fd_sc_mcu7t5v0__oai21_1 A1 A2 B ZN VDD VNW VPW VSS
.ends

* Black-box entry subcircuit for gf180mcu_fd_sc_mcu7t5v0__nor3_1 abstract view
.subckt gf180mcu_fd_sc_mcu7t5v0__nor3_1 A1 A2 A3 ZN VDD VNW VPW VSS
.ends

* Black-box entry subcircuit for gf180mcu_fd_sc_mcu7t5v0__oai22_1 abstract view
.subckt gf180mcu_fd_sc_mcu7t5v0__oai22_1 A1 A2 B1 B2 ZN VDD VNW VPW VSS
.ends

* Black-box entry subcircuit for gf180mcu_fd_sc_mcu7t5v0__and4_1 abstract view
.subckt gf180mcu_fd_sc_mcu7t5v0__and4_1 A1 A2 A3 A4 Z VDD VNW VPW VSS
.ends

* Black-box entry subcircuit for gf180mcu_fd_sc_mcu7t5v0__buf_2 abstract view
.subckt gf180mcu_fd_sc_mcu7t5v0__buf_2 I Z VDD VNW VPW VSS
.ends

* Black-box entry subcircuit for gf180mcu_fd_sc_mcu7t5v0__clkbuf_1 abstract view
.subckt gf180mcu_fd_sc_mcu7t5v0__clkbuf_1 I Z VDD VNW VPW VSS
.ends

* Black-box entry subcircuit for gf180mcu_fd_sc_mcu7t5v0__buf_3 abstract view
.subckt gf180mcu_fd_sc_mcu7t5v0__buf_3 I Z VDD VNW VPW VSS
.ends

* Black-box entry subcircuit for gf180mcu_fd_sc_mcu7t5v0__nor3_2 abstract view
.subckt gf180mcu_fd_sc_mcu7t5v0__nor3_2 A1 A2 A3 ZN VDD VNW VPW VSS
.ends

* Black-box entry subcircuit for gf180mcu_fd_sc_mcu7t5v0__oai32_1 abstract view
.subckt gf180mcu_fd_sc_mcu7t5v0__oai32_1 A1 A2 A3 B1 B2 ZN VDD VNW VPW VSS
.ends

* Black-box entry subcircuit for gf180mcu_fd_sc_mcu7t5v0__aoi221_1 abstract view
.subckt gf180mcu_fd_sc_mcu7t5v0__aoi221_1 A1 A2 B1 B2 C ZN VDD VNW VPW VSS
.ends

* Black-box entry subcircuit for gf180mcu_fd_sc_mcu7t5v0__or3_1 abstract view
.subckt gf180mcu_fd_sc_mcu7t5v0__or3_1 A1 A2 A3 Z VDD VNW VPW VSS
.ends

* Black-box entry subcircuit for gf180mcu_fd_sc_mcu7t5v0__and3_1 abstract view
.subckt gf180mcu_fd_sc_mcu7t5v0__and3_1 A1 A2 A3 Z VDD VNW VPW VSS
.ends

* Black-box entry subcircuit for gf180mcu_fd_sc_mcu7t5v0__tiel abstract view
.subckt gf180mcu_fd_sc_mcu7t5v0__tiel ZN VDD VNW VPW VSS
.ends

* Black-box entry subcircuit for gf180mcu_fd_sc_mcu7t5v0__dlyc_1 abstract view
.subckt gf180mcu_fd_sc_mcu7t5v0__dlyc_1 I Z VDD VNW VPW VSS
.ends

.subckt digital_wrapper VDD VSS bist_en bn0 bn1 bn2 bn3 bn4 bn5 bn6 bn7 bn8 bn9 bp0
+ bp1 bp2 bp3 bp4 bp5 bp6 bp7 bp8 bp9 clk comp_in cs_n miso mosi rst_n sclk start
XFILLER_39_277 VDD VDD VSS VSS gf180mcu_fd_sc_mcu7t5v0__fill_2
XFILLER_10_317 VDD VDD VSS VSS gf180mcu_fd_sc_mcu7t5v0__fillcap_8
XFILLER_22_177 VDD VDD VSS VSS gf180mcu_fd_sc_mcu7t5v0__fillcap_4
XTAP_TAPCELL_ROW_9_137 VDD VSS gf180mcu_fd_sc_mcu7t5v0__filltie
X_501_ _528_/A1 _538_/A1 _501_/B _505_/A2 VDD VDD VSS VSS gf180mcu_fd_sc_mcu7t5v0__aoi21_1
X_432_ _670_/D _680_/Q _432_/B1 _753_/Q _433_/I VDD VDD VSS VSS gf180mcu_fd_sc_mcu7t5v0__aoi22_1
XFILLER_26_63 VDD VDD VSS VSS gf180mcu_fd_sc_mcu7t5v0__fillcap_32
XFILLER_13_166 VDD VDD VSS VSS gf180mcu_fd_sc_mcu7t5v0__fill_2
X_363_ _435_/B _775_/D VDD VDD VSS VSS gf180mcu_fd_sc_mcu7t5v0__clkinv_1
XFILLER_3_89 VDD VDD VSS VSS gf180mcu_fd_sc_mcu7t5v0__fillcap_8
XTAP_TAPCELL_ROW_14_161 VDD VSS gf180mcu_fd_sc_mcu7t5v0__filltie
XFILLER_8_170 VDD VDD VSS VSS gf180mcu_fd_sc_mcu7t5v0__fillcap_4
XTAP_TAPCELL_ROW_37_264 VDD VSS gf180mcu_fd_sc_mcu7t5v0__filltie
XFILLER_6_107 VDD VDD VSS VSS gf180mcu_fd_sc_mcu7t5v0__fillcap_16
XFILLER_12_98 VDD VDD VSS VSS gf180mcu_fd_sc_mcu7t5v0__fillcap_4
XTAP_TAPCELL_ROW_20_186 VDD VSS gf180mcu_fd_sc_mcu7t5v0__filltie
XFILLER_18_247 VDD VDD VSS VSS gf180mcu_fd_sc_mcu7t5v0__fillcap_32
X_415_ _671_/Q _430_/B1 _432_/B1 _755_/Q _416_/A2 VDD VDD VSS VSS gf180mcu_fd_sc_mcu7t5v0__aoi22_1
X_346_ _708_/Q _599_/A2 VDD VDD VSS VSS gf180mcu_fd_sc_mcu7t5v0__clkinv_1
XTAP_TAPCELL_ROW_25_212 VDD VSS gf180mcu_fd_sc_mcu7t5v0__filltie
XFILLER_38_309 VDD VDD VSS VSS gf180mcu_fd_sc_mcu7t5v0__fillcap_4
XFILLER_21_209 VDD VDD VSS VSS gf180mcu_fd_sc_mcu7t5v0__fill_1
XTAP_TAPCELL_ROW_31_237 VDD VSS gf180mcu_fd_sc_mcu7t5v0__filltie
XFILLER_20_231 VDD VDD VSS VSS gf180mcu_fd_sc_mcu7t5v0__fillcap_4
XFILLER_20_253 VDD VDD VSS VSS gf180mcu_fd_sc_mcu7t5v0__fillcap_8
X_680_ _680_/D _756_/CLK _680_/Q VDD VDD VSS VSS gf180mcu_fd_sc_mcu7t5v0__dffq_1
XTAP_TAPCELL_ROW_45_307 VDD VSS gf180mcu_fd_sc_mcu7t5v0__filltie
XFILLER_15_6 VDD VDD VSS VSS gf180mcu_fd_sc_mcu7t5v0__fill_1
XPHY_EDGE_ROW_28_Left_74 VDD VSS gf180mcu_fd_sc_mcu7t5v0__endcap
XPHY_EDGE_ROW_12_Left_58 VDD VSS gf180mcu_fd_sc_mcu7t5v0__endcap
XFILLER_20_32 VDD VDD VSS VSS gf180mcu_fd_sc_mcu7t5v0__fill_2
XFILLER_4_227 VDD VDD VSS VSS gf180mcu_fd_sc_mcu7t5v0__fill_1
X_732_ _732_/D _777_/RN _777_/CLK _732_/Q VDD VDD VSS VSS gf180mcu_fd_sc_mcu7t5v0__dffrnq_1
XFILLER_16_312 VDD VDD VSS VSS gf180mcu_fd_sc_mcu7t5v0__fill_2
X_594_ _739_/Q _707_/Q _640_/B VDD VDD VSS VSS gf180mcu_fd_sc_mcu7t5v0__and2_1
X_663_ _743_/Q input3/Z _668_/S _743_/D VDD VDD VSS VSS gf180mcu_fd_sc_mcu7t5v0__mux2_2
XFILLER_43_142 VDD VDD VSS VSS gf180mcu_fd_sc_mcu7t5v0__fillcap_8
XFILLER_28_194 VDD VDD VSS VSS gf180mcu_fd_sc_mcu7t5v0__fillcap_32
XFILLER_28_161 VDD VDD VSS VSS gf180mcu_fd_sc_mcu7t5v0__fillcap_8
XFILLER_6_34 VDD VDD VSS VSS gf180mcu_fd_sc_mcu7t5v0__fill_1
XFILLER_6_45 VDD VDD VSS VSS gf180mcu_fd_sc_mcu7t5v0__fillcap_4
XFILLER_19_150 VDD VDD VSS VSS gf180mcu_fd_sc_mcu7t5v0__fillcap_8
XFILLER_19_194 VDD VDD VSS VSS gf180mcu_fd_sc_mcu7t5v0__fillcap_4
XFILLER_25_142 VDD VDD VSS VSS gf180mcu_fd_sc_mcu7t5v0__fillcap_8
XFILLER_15_65 VDD VDD VSS VSS gf180mcu_fd_sc_mcu7t5v0__fillcap_4
XFILLER_15_76 VDD VDD VSS VSS gf180mcu_fd_sc_mcu7t5v0__fill_2
XFILLER_40_123 VDD VDD VSS VSS gf180mcu_fd_sc_mcu7t5v0__fillcap_8
Xoutput7 _691_/Q bn0 VDD VDD VSS VSS gf180mcu_fd_sc_mcu7t5v0__dlyb_1
Xoutput20 _684_/Q bp3 VDD VDD VSS VSS gf180mcu_fd_sc_mcu7t5v0__dlyb_1
XFILLER_0_274 VDD VDD VSS VSS gf180mcu_fd_sc_mcu7t5v0__fillcap_32
X_715_ _715_/D _773_/RN _774_/CLK _715_/Q VDD VDD VSS VSS gf180mcu_fd_sc_mcu7t5v0__dffrnq_1
X_577_ _741_/Q _709_/Q _612_/B VDD VDD VSS VSS gf180mcu_fd_sc_mcu7t5v0__nand2_1
X_646_ _732_/Q _777_/Q _648_/B VDD VDD VSS VSS gf180mcu_fd_sc_mcu7t5v0__nor2_1
XFILLER_39_212 VDD VDD VSS VSS gf180mcu_fd_sc_mcu7t5v0__fillcap_16
XFILLER_39_245 VDD VDD VSS VSS gf180mcu_fd_sc_mcu7t5v0__fillcap_32
XFILLER_22_101 VDD VDD VSS VSS gf180mcu_fd_sc_mcu7t5v0__fillcap_4
XTAP_TAPCELL_ROW_9_138 VDD VSS gf180mcu_fd_sc_mcu7t5v0__filltie
XPHY_EDGE_ROW_15_Left_61 VDD VSS gf180mcu_fd_sc_mcu7t5v0__endcap
X_500_ _500_/A1 _500_/A2 _700_/D VDD VDD VSS VSS gf180mcu_fd_sc_mcu7t5v0__nor2_1
Xclkbuf_3_6__f_clk clkbuf_0_clk/Z _775_/CLK VDD VDD VSS VSS gf180mcu_fd_sc_mcu7t5v0__clkbuf_16
X_431_ _431_/I _679_/D VDD VDD VSS VSS gf180mcu_fd_sc_mcu7t5v0__clkinv_1
X_362_ _528_/A1 _537_/A1 _435_/B VDD VDD VSS VSS gf180mcu_fd_sc_mcu7t5v0__nand2_1
XFILLER_42_96 VDD VDD VSS VSS gf180mcu_fd_sc_mcu7t5v0__fillcap_8
X_629_ _727_/Q _669_/D _630_/B VDD VDD VSS VSS gf180mcu_fd_sc_mcu7t5v0__nor2_1
XTAP_TAPCELL_ROW_14_162 VDD VSS gf180mcu_fd_sc_mcu7t5v0__filltie
XTAP_TAPCELL_ROW_37_265 VDD VSS gf180mcu_fd_sc_mcu7t5v0__filltie
XFILLER_12_66 VDD VDD VSS VSS gf180mcu_fd_sc_mcu7t5v0__fill_2
XTAP_TAPCELL_ROW_20_187 VDD VSS gf180mcu_fd_sc_mcu7t5v0__filltie
XPHY_EDGE_ROW_0_Left_46 VDD VSS gf180mcu_fd_sc_mcu7t5v0__endcap
XFILLER_33_207 VDD VDD VSS VSS gf180mcu_fd_sc_mcu7t5v0__fill_2
X_414_ _334_/I _672_/Q _416_/A1 VDD VDD VSS VSS gf180mcu_fd_sc_mcu7t5v0__nand2_1
X_345_ _709_/Q _529_/B2 VDD VDD VSS VSS gf180mcu_fd_sc_mcu7t5v0__clkinv_1
XFILLER_41_273 VDD VDD VSS VSS gf180mcu_fd_sc_mcu7t5v0__fillcap_4
XFILLER_32_295 VDD VDD VSS VSS gf180mcu_fd_sc_mcu7t5v0__fillcap_4
XPHY_EDGE_ROW_42_Left_88 VDD VSS gf180mcu_fd_sc_mcu7t5v0__endcap
XPHY_EDGE_ROW_12_Right_12 VDD VSS gf180mcu_fd_sc_mcu7t5v0__endcap
XPHY_EDGE_ROW_21_Right_21 VDD VSS gf180mcu_fd_sc_mcu7t5v0__endcap
XPHY_EDGE_ROW_30_Right_30 VDD VSS gf180mcu_fd_sc_mcu7t5v0__endcap
XFILLER_2_111 VDD VDD VSS VSS gf180mcu_fd_sc_mcu7t5v0__fill_1
XFILLER_2_177 VDD VDD VSS VSS gf180mcu_fd_sc_mcu7t5v0__fill_2
XFILLER_14_295 VDD VDD VSS VSS gf180mcu_fd_sc_mcu7t5v0__fillcap_8
XTAP_TAPCELL_ROW_31_238 VDD VSS gf180mcu_fd_sc_mcu7t5v0__filltie
XFILLER_9_78 VDD VDD VSS VSS gf180mcu_fd_sc_mcu7t5v0__fill_1
XFILLER_9_67 VDD VDD VSS VSS gf180mcu_fd_sc_mcu7t5v0__fill_2
XFILLER_9_56 VDD VDD VSS VSS gf180mcu_fd_sc_mcu7t5v0__fill_1
XFILLER_36_2 VDD VDD VSS VSS gf180mcu_fd_sc_mcu7t5v0__fillcap_8
XFILLER_20_243 VDD VDD VSS VSS gf180mcu_fd_sc_mcu7t5v0__fill_2
XFILLER_20_298 VDD VDD VSS VSS gf180mcu_fd_sc_mcu7t5v0__fill_1
XFILLER_34_53 VDD VDD VSS VSS gf180mcu_fd_sc_mcu7t5v0__fillcap_8
Xload_slew42 _377_/S _668_/S VDD VDD VSS VSS gf180mcu_fd_sc_mcu7t5v0__buf_4
XFILLER_38_107 VDD VDD VSS VSS gf180mcu_fd_sc_mcu7t5v0__fillcap_64
XFILLER_34_302 VDD VDD VSS VSS gf180mcu_fd_sc_mcu7t5v0__fill_1
XPHY_EDGE_ROW_45_Left_91 VDD VSS gf180mcu_fd_sc_mcu7t5v0__endcap
X_662_ _742_/Q _752_/Q _662_/S _742_/D VDD VDD VSS VSS gf180mcu_fd_sc_mcu7t5v0__mux2_2
X_731_ _731_/D _777_/RN _775_/CLK _731_/Q VDD VDD VSS VSS gf180mcu_fd_sc_mcu7t5v0__dffrnq_1
XFILLER_29_53 VDD VDD VSS VSS gf180mcu_fd_sc_mcu7t5v0__fill_1
X_593_ _621_/A1 _593_/A2 _593_/B _593_/C _628_/A1 VDD VDD VSS VSS gf180mcu_fd_sc_mcu7t5v0__oai211_1
XFILLER_43_154 VDD VDD VSS VSS gf180mcu_fd_sc_mcu7t5v0__fill_1
XFILLER_28_173 VDD VDD VSS VSS gf180mcu_fd_sc_mcu7t5v0__fill_2
XFILLER_6_57 VDD VDD VSS VSS gf180mcu_fd_sc_mcu7t5v0__fillcap_4
XFILLER_1_209 VDD VDD VSS VSS gf180mcu_fd_sc_mcu7t5v0__fill_1
XPHY_EDGE_ROW_6_Right_6 VDD VSS gf180mcu_fd_sc_mcu7t5v0__endcap
XFILLER_25_154 VDD VDD VSS VSS gf180mcu_fd_sc_mcu7t5v0__fill_2
XFILLER_15_99 VDD VDD VSS VSS gf180mcu_fd_sc_mcu7t5v0__fill_1
XFILLER_40_179 VDD VDD VSS VSS gf180mcu_fd_sc_mcu7t5v0__fill_1
Xoutput8 _692_/Q bn1 VDD VDD VSS VSS gf180mcu_fd_sc_mcu7t5v0__dlyb_1
Xoutput21 _685_/Q bp4 VDD VDD VSS VSS gf180mcu_fd_sc_mcu7t5v0__dlyb_1
Xoutput10 _694_/Q bn3 VDD VDD VSS VSS gf180mcu_fd_sc_mcu7t5v0__dlyb_1
XFILLER_31_98 VDD VDD VSS VSS gf180mcu_fd_sc_mcu7t5v0__fill_1
X_645_ _645_/A1 _643_/Z _645_/B _731_/D VDD VDD VSS VSS gf180mcu_fd_sc_mcu7t5v0__aoi21_1
X_714_ _714_/D _713_/RN _714_/CLK _714_/Q VDD VDD VSS VSS gf180mcu_fd_sc_mcu7t5v0__dffsnq_1
X_576_ _742_/Q _710_/Q _576_/Z VDD VDD VSS VSS gf180mcu_fd_sc_mcu7t5v0__or2_1
XFILLER_31_135 VDD VDD VSS VSS gf180mcu_fd_sc_mcu7t5v0__fillcap_4
XFILLER_39_279 VDD VDD VSS VSS gf180mcu_fd_sc_mcu7t5v0__fill_1
XTAP_TAPCELL_ROW_9_139 VDD VSS gf180mcu_fd_sc_mcu7t5v0__filltie
XFILLER_13_168 VDD VDD VSS VSS gf180mcu_fd_sc_mcu7t5v0__fill_1
X_430_ _670_/D _679_/Q _430_/B1 _678_/Q _397_/B _762_/Q _431_/I VDD VDD VSS VSS gf180mcu_fd_sc_mcu7t5v0__aoi222_1
X_361_ _541_/A1 _461_/A2 _538_/A1 VDD VDD VSS VSS gf180mcu_fd_sc_mcu7t5v0__nand2_1
XFILLER_3_58 VDD VDD VSS VSS gf180mcu_fd_sc_mcu7t5v0__fillcap_8
X_628_ _628_/A1 _604_/Z _628_/Z VDD VDD VSS VSS gf180mcu_fd_sc_mcu7t5v0__xor2_1
XFILLER_29_290 VDD VDD VSS VSS gf180mcu_fd_sc_mcu7t5v0__fillcap_4
X_559_ _570_/B2 _559_/A2 _559_/B _718_/D VDD VDD VSS VSS gf180mcu_fd_sc_mcu7t5v0__aoi21_1
XTAP_TAPCELL_ROW_14_163 VDD VSS gf180mcu_fd_sc_mcu7t5v0__filltie
XFILLER_8_161 VDD VDD VSS VSS gf180mcu_fd_sc_mcu7t5v0__fill_1
XTAP_TAPCELL_ROW_37_266 VDD VSS gf180mcu_fd_sc_mcu7t5v0__filltie
XFILLER_42_208 VDD VDD VSS VSS gf180mcu_fd_sc_mcu7t5v0__fillcap_8
XFILLER_12_45 VDD VDD VSS VSS gf180mcu_fd_sc_mcu7t5v0__fillcap_4
XTAP_TAPCELL_ROW_20_188 VDD VSS gf180mcu_fd_sc_mcu7t5v0__filltie
XTAP_TAPCELL_ROW_5_120 VDD VSS gf180mcu_fd_sc_mcu7t5v0__filltie
X_413_ _413_/A1 _413_/A2 _671_/D VDD VDD VSS VSS gf180mcu_fd_sc_mcu7t5v0__nand2_1
XTAP_TAPCELL_ROW_28_222 VDD VSS gf180mcu_fd_sc_mcu7t5v0__filltie
X_344_ _777_/D _371_/A1 VDD VDD VSS VSS gf180mcu_fd_sc_mcu7t5v0__clkinv_1
XFILLER_17_282 VDD VDD VSS VSS gf180mcu_fd_sc_mcu7t5v0__fillcap_8
XTAP_TAPCELL_ROW_31_239 VDD VSS gf180mcu_fd_sc_mcu7t5v0__filltie
XFILLER_43_325 VDD VDD VSS VSS gf180mcu_fd_sc_mcu7t5v0__fill_1
XFILLER_7_248 VDD VDD VSS VSS gf180mcu_fd_sc_mcu7t5v0__fill_2
XFILLER_34_325 VDD VDD VSS VSS gf180mcu_fd_sc_mcu7t5v0__fill_1
XFILLER_40_317 VDD VDD VSS VSS gf180mcu_fd_sc_mcu7t5v0__fillcap_8
XFILLER_20_34 VDD VDD VSS VSS gf180mcu_fd_sc_mcu7t5v0__fill_1
XFILLER_16_314 VDD VDD VSS VSS gf180mcu_fd_sc_mcu7t5v0__fill_1
X_592_ _625_/A1 _588_/Z _592_/B _635_/A1 VDD VDD VSS VSS gf180mcu_fd_sc_mcu7t5v0__aoi21_1
X_661_ _741_/Q _751_/Q _662_/S _741_/D VDD VDD VSS VSS gf180mcu_fd_sc_mcu7t5v0__mux2_2
X_730_ _730_/D _730_/RN _730_/CLK _730_/Q VDD VDD VSS VSS gf180mcu_fd_sc_mcu7t5v0__dffrnq_1
XFILLER_28_130 VDD VDD VSS VSS gf180mcu_fd_sc_mcu7t5v0__fill_2
XFILLER_16_325 VDD VDD VSS VSS gf180mcu_fd_sc_mcu7t5v0__fill_1
XFILLER_43_199 VDD VDD VSS VSS gf180mcu_fd_sc_mcu7t5v0__fillcap_8
XFILLER_6_69 VDD VDD VSS VSS gf180mcu_fd_sc_mcu7t5v0__fillcap_4
XFILLER_34_100 VDD VDD VSS VSS gf180mcu_fd_sc_mcu7t5v0__fillcap_4
XFILLER_22_317 VDD VDD VSS VSS gf180mcu_fd_sc_mcu7t5v0__fillcap_8
XFILLER_34_177 VDD VDD VSS VSS gf180mcu_fd_sc_mcu7t5v0__fillcap_32
Xoutput9 _693_/Q bn2 VDD VDD VSS VSS gf180mcu_fd_sc_mcu7t5v0__dlyb_1
Xoutput22 _686_/Q bp5 VDD VDD VSS VSS gf180mcu_fd_sc_mcu7t5v0__dlyb_1
Xoutput11 _695_/Q bn4 VDD VDD VSS VSS gf180mcu_fd_sc_mcu7t5v0__dlyb_1
XFILLER_16_155 VDD VDD VSS VSS gf180mcu_fd_sc_mcu7t5v0__fillcap_8
X_575_ _733_/Q _575_/A2 _575_/Z VDD VDD VSS VSS gf180mcu_fd_sc_mcu7t5v0__xor2_1
X_644_ _731_/Q _777_/Q _645_/B VDD VDD VSS VSS gf180mcu_fd_sc_mcu7t5v0__nor2_1
X_713_ _713_/D _713_/RN _714_/CLK _713_/Q VDD VDD VSS VSS gf180mcu_fd_sc_mcu7t5v0__dffrnq_1
XFILLER_16_177 VDD VDD VSS VSS gf180mcu_fd_sc_mcu7t5v0__fill_1
XFILLER_11_2 VDD VDD VSS VSS gf180mcu_fd_sc_mcu7t5v0__fillcap_4
XFILLER_45_206 VDD VDD VSS VSS gf180mcu_fd_sc_mcu7t5v0__fillcap_32
XFILLER_13_158 VDD VDD VSS VSS gf180mcu_fd_sc_mcu7t5v0__fillcap_8
X_360_ _712_/Q _711_/Q _714_/Q _713_/Q _537_/A1 VDD VDD VSS VSS gf180mcu_fd_sc_mcu7t5v0__nor4_1
XFILLER_9_129 VDD VDD VSS VSS gf180mcu_fd_sc_mcu7t5v0__fill_1
XFILLER_42_32 VDD VDD VSS VSS gf180mcu_fd_sc_mcu7t5v0__fill_2
X_558_ _717_/Q _550_/Z _718_/Q _559_/B VDD VDD VSS VSS gf180mcu_fd_sc_mcu7t5v0__aoi21_1
X_627_ _642_/A1 _626_/Z _627_/B _726_/D VDD VDD VSS VSS gf180mcu_fd_sc_mcu7t5v0__aoi21_1
X_489_ _455_/Z _495_/A2 _695_/Q _490_/A2 VDD VDD VSS VSS gf180mcu_fd_sc_mcu7t5v0__aoi21_1
XFILLER_10_139 VDD VDD VSS VSS gf180mcu_fd_sc_mcu7t5v0__fillcap_16
XFILLER_35_250 VDD VDD VSS VSS gf180mcu_fd_sc_mcu7t5v0__fill_1
XTAP_TAPCELL_ROW_20_189 VDD VSS gf180mcu_fd_sc_mcu7t5v0__filltie
XTAP_TAPCELL_ROW_5_121 VDD VSS gf180mcu_fd_sc_mcu7t5v0__filltie
XFILLER_37_10 VDD VDD VSS VSS gf180mcu_fd_sc_mcu7t5v0__fillcap_4
X_412_ _680_/Q _430_/B1 _432_/B1 _754_/Q _413_/A2 VDD VDD VSS VSS gf180mcu_fd_sc_mcu7t5v0__aoi22_1
XTAP_TAPCELL_ROW_28_223 VDD VSS gf180mcu_fd_sc_mcu7t5v0__filltie
XFILLER_41_220 VDD VDD VSS VSS gf180mcu_fd_sc_mcu7t5v0__fillcap_4
XFILLER_33_209 VDD VDD VSS VSS gf180mcu_fd_sc_mcu7t5v0__fill_1
XFILLER_26_261 VDD VDD VSS VSS gf180mcu_fd_sc_mcu7t5v0__fillcap_4
X_343_ _343_/I _370_/A2 VDD VDD VSS VSS gf180mcu_fd_sc_mcu7t5v0__clkinv_1
XFILLER_5_176 VDD VDD VSS VSS gf180mcu_fd_sc_mcu7t5v0__fill_2
XFILLER_17_294 VDD VDD VSS VSS gf180mcu_fd_sc_mcu7t5v0__fill_2
XFILLER_23_297 VDD VDD VSS VSS gf180mcu_fd_sc_mcu7t5v0__fillcap_4
XFILLER_2_146 VDD VDD VSS VSS gf180mcu_fd_sc_mcu7t5v0__fillcap_4
XFILLER_9_69 VDD VDD VSS VSS gf180mcu_fd_sc_mcu7t5v0__fill_1
XFILLER_9_36 VDD VDD VSS VSS gf180mcu_fd_sc_mcu7t5v0__fillcap_16
XTAP_TAPCELL_ROW_0_92 VDD VSS gf180mcu_fd_sc_mcu7t5v0__filltie
XFILLER_37_323 VDD VDD VSS VSS gf180mcu_fd_sc_mcu7t5v0__fill_2
XFILLER_20_223 VDD VDD VSS VSS gf180mcu_fd_sc_mcu7t5v0__fillcap_8
XFILLER_9_290 VDD VDD VSS VSS gf180mcu_fd_sc_mcu7t5v0__fill_2
XFILLER_18_34 VDD VDD VSS VSS gf180mcu_fd_sc_mcu7t5v0__fill_1
XFILLER_18_45 VDD VDD VSS VSS gf180mcu_fd_sc_mcu7t5v0__fillcap_4
XFILLER_11_256 VDD VDD VSS VSS gf180mcu_fd_sc_mcu7t5v0__fillcap_16
XFILLER_37_142 VDD VDD VSS VSS gf180mcu_fd_sc_mcu7t5v0__fill_1
XFILLER_29_44 VDD VDD VSS VSS gf180mcu_fd_sc_mcu7t5v0__fill_1
X_591_ _593_/C _593_/B _592_/B VDD VDD VSS VSS gf180mcu_fd_sc_mcu7t5v0__nand2_1
X_660_ _740_/Q _750_/Q _660_/S _740_/D VDD VDD VSS VSS gf180mcu_fd_sc_mcu7t5v0__mux2_2
XFILLER_29_88 VDD VDD VSS VSS gf180mcu_fd_sc_mcu7t5v0__fill_2
XFILLER_6_37 VDD VDD VSS VSS gf180mcu_fd_sc_mcu7t5v0__fillcap_8
XFILLER_3_263 VDD VDD VSS VSS gf180mcu_fd_sc_mcu7t5v0__fill_2
XFILLER_19_120 VDD VDD VSS VSS gf180mcu_fd_sc_mcu7t5v0__fill_2
XFILLER_19_142 VDD VDD VSS VSS gf180mcu_fd_sc_mcu7t5v0__fillcap_4
XFILLER_25_112 VDD VDD VSS VSS gf180mcu_fd_sc_mcu7t5v0__fillcap_16
XFILLER_15_57 VDD VDD VSS VSS gf180mcu_fd_sc_mcu7t5v0__fillcap_8
XFILLER_40_104 VDD VDD VSS VSS gf180mcu_fd_sc_mcu7t5v0__fill_1
Xoutput23 _687_/Q bp6 VDD VDD VSS VSS gf180mcu_fd_sc_mcu7t5v0__dlyb_1
Xoutput12 _696_/Q bn5 VDD VDD VSS VSS gf180mcu_fd_sc_mcu7t5v0__dlyb_1
X_712_ _712_/D _775_/RN _714_/CLK _712_/Q VDD VDD VSS VSS gf180mcu_fd_sc_mcu7t5v0__dffrnq_1
XFILLER_16_167 VDD VDD VSS VSS gf180mcu_fd_sc_mcu7t5v0__fill_2
X_574_ _733_/Q _701_/Q _618_/A3 VDD VDD VSS VSS gf180mcu_fd_sc_mcu7t5v0__nand2_1
X_643_ _741_/Q _709_/Q _643_/A3 _643_/Z VDD VDD VSS VSS gf180mcu_fd_sc_mcu7t5v0__xor3_1
XFILLER_22_115 VDD VDD VSS VSS gf180mcu_fd_sc_mcu7t5v0__fillcap_8
XTAP_TAPCELL_ROW_17_173 VDD VSS gf180mcu_fd_sc_mcu7t5v0__filltie
XFILLER_30_192 VDD VDD VSS VSS gf180mcu_fd_sc_mcu7t5v0__fillcap_8
XFILLER_26_45 VDD VDD VSS VSS gf180mcu_fd_sc_mcu7t5v0__fillcap_4
XFILLER_26_34 VDD VDD VSS VSS gf180mcu_fd_sc_mcu7t5v0__fill_1
XFILLER_42_22 VDD VDD VSS VSS gf180mcu_fd_sc_mcu7t5v0__fill_2
X_488_ _496_/A1 _488_/A2 _694_/D VDD VDD VSS VSS gf180mcu_fd_sc_mcu7t5v0__nor2_1
X_557_ _570_/B2 _559_/A2 _560_/A2 VDD VDD VSS VSS gf180mcu_fd_sc_mcu7t5v0__nand2_1
X_626_ _587_/Z _626_/A2 _626_/Z VDD VDD VSS VSS gf180mcu_fd_sc_mcu7t5v0__xor2_1
XFILLER_44_273 VDD VDD VSS VSS gf180mcu_fd_sc_mcu7t5v0__fillcap_32
XFILLER_8_174 VDD VDD VSS VSS gf180mcu_fd_sc_mcu7t5v0__fill_1
XPHY_EDGE_ROW_19_Left_65 VDD VSS gf180mcu_fd_sc_mcu7t5v0__endcap
XFILLER_35_273 VDD VDD VSS VSS gf180mcu_fd_sc_mcu7t5v0__fillcap_4
XFILLER_35_240 VDD VDD VSS VSS gf180mcu_fd_sc_mcu7t5v0__fillcap_8
XFILLER_10_107 VDD VDD VSS VSS gf180mcu_fd_sc_mcu7t5v0__fillcap_32
XFILLER_2_317 VDD VDD VSS VSS gf180mcu_fd_sc_mcu7t5v0__fillcap_4
XTAP_TAPCELL_ROW_5_122 VDD VSS gf180mcu_fd_sc_mcu7t5v0__filltie
X_411_ _334_/I _671_/Q _413_/A1 VDD VDD VSS VSS gf180mcu_fd_sc_mcu7t5v0__nand2_1
X_342_ _342_/I _506_/A2 VDD VDD VSS VSS gf180mcu_fd_sc_mcu7t5v0__clkinv_1
XTAP_TAPCELL_ROW_28_224 VDD VSS gf180mcu_fd_sc_mcu7t5v0__filltie
XFILLER_41_254 VDD VDD VSS VSS gf180mcu_fd_sc_mcu7t5v0__fill_1
XTAP_TAPCELL_ROW_11_146 VDD VSS gf180mcu_fd_sc_mcu7t5v0__filltie
X_609_ _635_/B2 _635_/B1 _610_/B1 VDD VDD VSS VSS gf180mcu_fd_sc_mcu7t5v0__nor2_1
XTAP_TAPCELL_ROW_34_249 VDD VSS gf180mcu_fd_sc_mcu7t5v0__filltie
XFILLER_32_243 VDD VDD VSS VSS gf180mcu_fd_sc_mcu7t5v0__fill_2
XFILLER_23_276 VDD VDD VSS VSS gf180mcu_fd_sc_mcu7t5v0__fillcap_4
XFILLER_2_103 VDD VDD VSS VSS gf180mcu_fd_sc_mcu7t5v0__fill_2
XTAP_TAPCELL_ROW_0_93 VDD VSS gf180mcu_fd_sc_mcu7t5v0__filltie
XFILLER_18_68 VDD VDD VSS VSS gf180mcu_fd_sc_mcu7t5v0__fillcap_4
XFILLER_28_313 VDD VDD VSS VSS gf180mcu_fd_sc_mcu7t5v0__fill_2
XFILLER_11_224 VDD VDD VSS VSS gf180mcu_fd_sc_mcu7t5v0__fillcap_32
XFILLER_34_34 VDD VDD VSS VSS gf180mcu_fd_sc_mcu7t5v0__fill_1
Xclkload0 _706_/CLK clkload0/Z VDD VDD VSS VSS gf180mcu_fd_sc_mcu7t5v0__clkbuf_2
XFILLER_19_302 VDD VDD VSS VSS gf180mcu_fd_sc_mcu7t5v0__fill_2
XFILLER_1_2 VDD VDD VSS VSS gf180mcu_fd_sc_mcu7t5v0__fillcap_16
XFILLER_34_2 VDD VDD VSS VSS gf180mcu_fd_sc_mcu7t5v0__fillcap_16
X_590_ _736_/Q _704_/Q _735_/Q _703_/Q _593_/B VDD VDD VSS VSS gf180mcu_fd_sc_mcu7t5v0__oai211_1
XPHY_EDGE_ROW_7_Left_53 VDD VSS gf180mcu_fd_sc_mcu7t5v0__endcap
XFILLER_6_49 VDD VDD VSS VSS gf180mcu_fd_sc_mcu7t5v0__fill_2
XFILLER_3_297 VDD VDD VSS VSS gf180mcu_fd_sc_mcu7t5v0__fillcap_8
XFILLER_19_198 VDD VDD VSS VSS gf180mcu_fd_sc_mcu7t5v0__fill_1
XFILLER_15_69 VDD VDD VSS VSS gf180mcu_fd_sc_mcu7t5v0__fill_1
XFILLER_0_201 VDD VDD VSS VSS gf180mcu_fd_sc_mcu7t5v0__fill_2
Xoutput24 _688_/Q bp7 VDD VDD VSS VSS gf180mcu_fd_sc_mcu7t5v0__dlyb_1
Xoutput13 _697_/Q bn6 VDD VDD VSS VSS gf180mcu_fd_sc_mcu7t5v0__dlyb_1
XPHY_EDGE_ROW_33_Left_79 VDD VSS gf180mcu_fd_sc_mcu7t5v0__endcap
XFILLER_31_68 VDD VDD VSS VSS gf180mcu_fd_sc_mcu7t5v0__fill_2
X_642_ _642_/A1 _642_/A2 _642_/B _730_/D VDD VDD VSS VSS gf180mcu_fd_sc_mcu7t5v0__aoi21_1
X_711_ _711_/D _775_/RN _714_/CLK _711_/Q VDD VDD VSS VSS gf180mcu_fd_sc_mcu7t5v0__dffsnq_1
XFILLER_16_102 VDD VDD VSS VSS gf180mcu_fd_sc_mcu7t5v0__fill_2
X_573_ _733_/Q _701_/Q _573_/Z VDD VDD VSS VSS gf180mcu_fd_sc_mcu7t5v0__and2_1
XPHY_EDGE_ROW_19_Right_19 VDD VSS gf180mcu_fd_sc_mcu7t5v0__endcap
Xclkbuf_3_1__f_clk clkbuf_0_clk/Z _705_/CLK VDD VDD VSS VSS gf180mcu_fd_sc_mcu7t5v0__clkbuf_16
XPHY_EDGE_ROW_28_Right_28 VDD VSS gf180mcu_fd_sc_mcu7t5v0__endcap
XPHY_EDGE_ROW_37_Right_37 VDD VSS gf180mcu_fd_sc_mcu7t5v0__endcap
XTAP_TAPCELL_ROW_17_174 VDD VSS gf180mcu_fd_sc_mcu7t5v0__filltie
XFILLER_13_127 VDD VDD VSS VSS gf180mcu_fd_sc_mcu7t5v0__fill_2
XFILLER_13_138 VDD VDD VSS VSS gf180mcu_fd_sc_mcu7t5v0__fill_2
XFILLER_42_78 VDD VDD VSS VSS gf180mcu_fd_sc_mcu7t5v0__fillcap_8
XFILLER_42_34 VDD VDD VSS VSS gf180mcu_fd_sc_mcu7t5v0__fill_1
X_625_ _625_/A1 _585_/Z _625_/B _626_/A2 VDD VDD VSS VSS gf180mcu_fd_sc_mcu7t5v0__aoi21_1
XFILLER_44_241 VDD VDD VSS VSS gf180mcu_fd_sc_mcu7t5v0__fillcap_4
XFILLER_29_282 VDD VDD VSS VSS gf180mcu_fd_sc_mcu7t5v0__fillcap_8
XFILLER_29_260 VDD VDD VSS VSS gf180mcu_fd_sc_mcu7t5v0__fillcap_4
XFILLER_16_90 VDD VDD VSS VSS gf180mcu_fd_sc_mcu7t5v0__fillcap_8
X_487_ _487_/A1 _495_/A2 _694_/Q _488_/A2 VDD VDD VSS VSS gf180mcu_fd_sc_mcu7t5v0__aoi21_1
X_556_ _542_/Z _562_/A2 _559_/A2 VDD VDD VSS VSS gf180mcu_fd_sc_mcu7t5v0__nand2_1
XFILLER_27_208 VDD VDD VSS VSS gf180mcu_fd_sc_mcu7t5v0__fill_2
XFILLER_12_37 VDD VDD VSS VSS gf180mcu_fd_sc_mcu7t5v0__fillcap_8
XTAP_TAPCELL_ROW_28_225 VDD VSS gf180mcu_fd_sc_mcu7t5v0__filltie
X_410_ _397_/B _410_/A2 _770_/D VDD VDD VSS VSS gf180mcu_fd_sc_mcu7t5v0__nor2_1
X_341_ _714_/Q _541_/A1 VDD VDD VSS VSS gf180mcu_fd_sc_mcu7t5v0__clkinv_1
XFILLER_41_277 VDD VDD VSS VSS gf180mcu_fd_sc_mcu7t5v0__fill_2
XTAP_TAPCELL_ROW_11_147 VDD VSS gf180mcu_fd_sc_mcu7t5v0__filltie
XFILLER_5_178 VDD VDD VSS VSS gf180mcu_fd_sc_mcu7t5v0__fill_1
XPHY_EDGE_ROW_36_Left_82 VDD VSS gf180mcu_fd_sc_mcu7t5v0__endcap
X_608_ _738_/Q _706_/Q _737_/Q _705_/Q _635_/B1 VDD VDD VSS VSS gf180mcu_fd_sc_mcu7t5v0__aoi22_1
XPHY_EDGE_ROW_20_Left_66 VDD VSS gf180mcu_fd_sc_mcu7t5v0__endcap
X_539_ _713_/Q _541_/A2 _540_/A2 VDD VDD VSS VSS gf180mcu_fd_sc_mcu7t5v0__nand2_1
XTAP_TAPCELL_ROW_0_94 VDD VSS gf180mcu_fd_sc_mcu7t5v0__filltie
XFILLER_37_325 VDD VDD VSS VSS gf180mcu_fd_sc_mcu7t5v0__fill_1
XTAP_TAPCELL_ROW_30_231 VDD VSS gf180mcu_fd_sc_mcu7t5v0__filltie
XFILLER_9_292 VDD VDD VSS VSS gf180mcu_fd_sc_mcu7t5v0__fill_1
XFILLER_28_325 VDD VDD VSS VSS gf180mcu_fd_sc_mcu7t5v0__fill_1
XFILLER_11_203 VDD VDD VSS VSS gf180mcu_fd_sc_mcu7t5v0__fillcap_4
Xclkload1 _705_/CLK clkload1/Z VDD VDD VSS VSS gf180mcu_fd_sc_mcu7t5v0__clkbuf_2
XFILLER_19_325 VDD VDD VSS VSS gf180mcu_fd_sc_mcu7t5v0__fill_1
XFILLER_34_317 VDD VDD VSS VSS gf180mcu_fd_sc_mcu7t5v0__fillcap_8
XFILLER_27_2 VDD VDD VSS VSS gf180mcu_fd_sc_mcu7t5v0__fill_1
XFILLER_20_37 VDD VDD VSS VSS gf180mcu_fd_sc_mcu7t5v0__fillcap_16
XFILLER_16_317 VDD VDD VSS VSS gf180mcu_fd_sc_mcu7t5v0__fillcap_8
XFILLER_43_136 VDD VDD VSS VSS gf180mcu_fd_sc_mcu7t5v0__fillcap_4
XFILLER_28_177 VDD VDD VSS VSS gf180mcu_fd_sc_mcu7t5v0__fill_1
XFILLER_6_28 VDD VDD VSS VSS gf180mcu_fd_sc_mcu7t5v0__fillcap_4
XFILLER_10_70 VDD VDD VSS VSS gf180mcu_fd_sc_mcu7t5v0__fill_2
XFILLER_13_309 VDD VDD VSS VSS gf180mcu_fd_sc_mcu7t5v0__fillcap_16
XFILLER_25_136 VDD VDD VSS VSS gf180mcu_fd_sc_mcu7t5v0__fillcap_4
Xoutput25 _689_/Q bp8 VDD VDD VSS VSS gf180mcu_fd_sc_mcu7t5v0__dlyb_1
Xoutput14 _698_/Q bn7 VDD VDD VSS VSS gf180mcu_fd_sc_mcu7t5v0__dlyb_1
X_572_ _722_/Q _572_/A2 _572_/A3 _572_/B _722_/D VDD VDD VSS VSS gf180mcu_fd_sc_mcu7t5v0__oai31_1
X_641_ _599_/Z _641_/A2 _642_/A2 VDD VDD VSS VSS gf180mcu_fd_sc_mcu7t5v0__xnor2_1
X_710_ _710_/D _775_/RN _775_/CLK _710_/Q VDD VDD VSS VSS gf180mcu_fd_sc_mcu7t5v0__dffrnq_1
XFILLER_16_169 VDD VDD VSS VSS gf180mcu_fd_sc_mcu7t5v0__fill_1
XFILLER_31_139 VDD VDD VSS VSS gf180mcu_fd_sc_mcu7t5v0__fill_1
XFILLER_39_228 VDD VDD VSS VSS gf180mcu_fd_sc_mcu7t5v0__fill_1
XFILLER_39_206 VDD VDD VSS VSS gf180mcu_fd_sc_mcu7t5v0__fillcap_4
XTAP_TAPCELL_ROW_17_175 VDD VSS gf180mcu_fd_sc_mcu7t5v0__filltie
XFILLER_30_172 VDD VDD VSS VSS gf180mcu_fd_sc_mcu7t5v0__fill_2
XTAP_TAPCELL_ROW_8_132 VDD VSS gf180mcu_fd_sc_mcu7t5v0__filltie
X_555_ _716_/Q _715_/Q _718_/Q _717_/Q _562_/A2 VDD VDD VSS VSS gf180mcu_fd_sc_mcu7t5v0__nand4_1
X_624_ _726_/Q _669_/D _627_/B VDD VDD VSS VSS gf180mcu_fd_sc_mcu7t5v0__nor2_1
X_486_ _496_/A1 _486_/A2 _693_/D VDD VDD VSS VSS gf180mcu_fd_sc_mcu7t5v0__nor2_1
XFILLER_35_220 VDD VDD VSS VSS gf180mcu_fd_sc_mcu7t5v0__fillcap_4
XFILLER_12_27 VDD VDD VSS VSS gf180mcu_fd_sc_mcu7t5v0__fillcap_8
XFILLER_12_49 VDD VDD VSS VSS gf180mcu_fd_sc_mcu7t5v0__fill_2
XTAP_TAPCELL_ROW_28_226 VDD VSS gf180mcu_fd_sc_mcu7t5v0__filltie